--------------------------------------------------------------------------
[[3053,1],24]: A high-performance Open MPI point-to-point messaging module
was unable to find any relevant network interfaces:

Module: OpenFabrics (openib)
  Host: ip-172-31-6-211

Another transport will be used instead, although this may result in
lower performance.

NOTE: You can disable this warning by setting the MCA parameter
btl_base_warn_component_unused to 0.
--------------------------------------------------------------------------
/*---------------------------------------------------------------------------*\
  =========                 |
  \\      /  F ield         | OpenFOAM: The Open Source CFD Toolbox
   \\    /   O peration     | Website:  https://openfoam.org
    \\  /    A nd           | Version:  6
     \\/     M anipulation  |
\*---------------------------------------------------------------------------*/
Build  : 6-6257b17a4cf8
Exec   : simpleFoam -parallel
Date   : Jan 19 2019
Time   : 15:20:08
Host   : "ip-172-31-9-94"
PID    : 13390
I/O    : uncollated
Case   : /home/ubuntu/OpenFOAM/ubuntu-6/run/cluster_case
nProcs : 32
Slaves : 
31
(
"ip-172-31-9-94.13391"
"ip-172-31-9-94.13392"
"ip-172-31-9-94.13393"
"ip-172-31-9-94.13394"
"ip-172-31-9-94.13395"
"ip-172-31-9-94.13396"
"ip-172-31-9-94.13402"
"ip-172-31-10-194.12283"
"ip-172-31-10-194.12284"
"ip-172-31-10-194.12285"
"ip-172-31-10-194.12287"
"ip-172-31-10-194.12289"
"ip-172-31-10-194.12292"
"ip-172-31-10-194.12296"
"ip-172-31-10-194.12303"
"ip-172-31-4-95.12253"
"ip-172-31-4-95.12254"
"ip-172-31-4-95.12255"
"ip-172-31-4-95.12257"
"ip-172-31-4-95.12259"
"ip-172-31-4-95.12264"
"ip-172-31-4-95.12267"
"ip-172-31-4-95.12275"
"ip-172-31-6-211.12271"
"ip-172-31-6-211.12272"
"ip-172-31-6-211.12273"
"ip-172-31-6-211.12275"
"ip-172-31-6-211.12277"
"ip-172-31-6-211.12279"
"ip-172-31-6-211.12283"
"ip-172-31-6-211.12289"
)

Pstream initialized with:
    floatTransfer      : 0
    nProcsSimpleSum    : 0
    commsType          : nonBlocking
    polling iterations : 0
sigFpe : Enabling floating point exception trapping (FOAM_SIGFPE).
fileModificationChecking : Monitoring run-time modified files using timeStampMaster (fileModificationSkew 10)
allowSystemOperations : Allowing user-supplied system call operations

// * * * * * * * * * * * * * * * * * * * * * * * * * * * * * * * * * * * * * //
Create time

Create mesh for time = 0


SIMPLE: No convergence criteria found

Reading field p

Reading field U

Reading/calculating face flux field phi

Selecting incompressible transport model Newtonian
Selecting turbulence model type RAS
Selecting RAS turbulence model kOmegaSST
Selecting patchDistMethod meshWave
RAS
{
    RASModel        kOmegaSST;
    turbulence      on;
    printCoeffs     on;
    alphaK1         0.85;
    alphaK2         1;
    alphaOmega1     0.5;
    alphaOmega2     0.856;
    gamma1          0.556;
    gamma2          0.44;
    beta1           0.075;
    beta2           0.0828;
    betaStar        0.09;
    a1              0.31;
    b1              1;
    c1              10;
    F3              false;
}

No MRF models present

No finite volume options present

Starting time loop

forces forceCoeffs1:
    Not including porosity effects
forceCoeffs forceCoeffs1:
    Not including porosity effects
forces forces_others:
    Not including porosity effects
forces forces_ns_rear_wing:
    Not including porosity effects
forces forces_mono:
    Not including porosity effects
forces forces_ns_front_wing:
    Not including porosity effects
forces forces_dyfuzor:
    Not including porosity effects
Time = 1

smoothSolver:  Solving for Ux, Initial residual = 1, Final residual = 0.0975, No Iterations 33
smoothSolver:  Solving for Uy, Initial residual = 1, Final residual = 0.0839, No Iterations 27
smoothSolver:  Solving for Uz, Initial residual = 1, Final residual = 0.0979, No Iterations 35
GAMG:  Solving for p, Initial residual = 1, Final residual = 0.00926, No Iterations 14
time step continuity errors : sum local = 0.000576, global = 3.09e-06, cumulative = 3.09e-06
smoothSolver:  Solving for omega, Initial residual = 0.000191, Final residual = 1.91e-05, No Iterations 2
bounding omega, min: -3.54e+03 max: 2.15e+06 average: 1.14e+04
smoothSolver:  Solving for k, Initial residual = 1, Final residual = 0.0743, No Iterations 4
ExecutionTime = 34.9 s  ClockTime = 35 s

forceCoeffs forceCoeffs1 write:
    Cm    = -12.1
    Cd    = -15.5
    Cl    = -10.8
    Cl(f) = -17.5
    Cl(r) = 6.73

forces forces_others write:
    sum of forces:
        pressure : (-618 -94.7 125)
        viscous  : (-0.722 -0.0616 -1.45)
        porous   : (0 0 0)
    sum of moments:
        pressure : (7.58 128 269)
        viscous  : (-0.787 -2.33 0.386)
        porous   : (0 0 0)

forces forces_ns_rear_wing write:
    sum of forces:
        pressure : (-352 -57.4 -371)
        viscous  : (-0.36 -0.00348 0.0636)
        porous   : (0 0 0)
    sum of moments:
        pressure : (-67.6 -901 182)
        viscous  : (0.0162 -0.132 0.111)
        porous   : (0 0 0)

forces forces_mono write:
    sum of forces:
        pressure : (-167 -24.3 -17.3)
        viscous  : (-0.102 -0.0133 -0.0671)
        porous   : (0 0 0)
    sum of moments:
        pressure : (4.41 -57.7 -61.7)
        viscous  : (-0.00481 -0.0623 0.0286)
        porous   : (0 0 0)

forces forces_ns_front_wing write:
    sum of forces:
        pressure : (-151 12.8 -314)
        viscous  : (-0.249 0.00202 0.0133)
        porous   : (0 0 0)
    sum of moments:
        pressure : (-113 166 70.6)
        viscous  : (0.0062 0.0123 0.104)
        porous   : (0 0 0)

forces forces_dyfuzor write:
    sum of forces:
        pressure : (-36.4 -0.257 -366)
        viscous  : (-0.151 -0.0065 0.00661)
        porous   : (0 0 0)
    sum of moments:
        pressure : (-96 -422 9.46)
        viscous  : (0.00123 0.0309 0.0571)
        porous   : (0 0 0)

Time = 2

smoothSolver:  Solving for Ux, Initial residual = 0.38, Final residual = 0.0323, No Iterations 7
smoothSolver:  Solving for Uy, Initial residual = 0.464, Final residual = 0.0411, No Iterations 5
smoothSolver:  Solving for Uz, Initial residual = 0.35, Final residual = 0.0312, No Iterations 5
GAMG:  Solving for p, Initial residual = 0.0316, Final residual = 0.000213, No Iterations 6
time step continuity errors : sum local = 0.00302, global = -1.91e-07, cumulative = 2.9e-06
smoothSolver:  Solving for omega, Initial residual = 0.998, Final residual = 0.0541, No Iterations 4
smoothSolver:  Solving for k, Initial residual = 0.935, Final residual = 0.000209, No Iterations 1
ExecutionTime = 46.7 s  ClockTime = 47 s

forceCoeffs forceCoeffs1 write:
    Cm    = -6.09
    Cd    = -6.64
    Cl    = -5.76
    Cl(f) = -8.97
    Cl(r) = 3.21

forces forces_others write:
    sum of forces:
        pressure : (-287 -1.75 32.4)
        viscous  : (-0.552 -0.0472 -1.34)
        porous   : (0 0 0)
    sum of moments:
        pressure : (-2.83 31.8 95)
        viscous  : (-0.743 -2.18 0.293)
        porous   : (0 0 0)

forces forces_ns_rear_wing write:
    sum of forces:
        pressure : (-137 -18.1 -179)
        viscous  : (-0.279 -0.00242 0.0989)
        porous   : (0 0 0)
    sum of moments:
        pressure : (-38.6 -404 62.3)
        viscous  : (0.0236 -0.00378 0.0915)
        porous   : (0 0 0)

forces forces_mono write:
    sum of forces:
        pressure : (-66.1 0.825 5.63)
        viscous  : (-0.0886 -0.00604 -0.0384)
        porous   : (0 0 0)
    sum of moments:
        pressure : (1.67 -19.9 -21.8)
        viscous  : (-0.00267 -0.0399 0.0274)
        porous   : (0 0 0)

forces forces_ns_front_wing write:
    sum of forces:
        pressure : (-58.1 2.29 -155)
        viscous  : (-0.213 0.00169 0.0314)
        porous   : (0 0 0)
    sum of moments:
        pressure : (-55.6 88.5 26.1)
        viscous  : (0.0137 0.00635 0.09)
        porous   : (0 0 0)

forces forces_dyfuzor write:
    sum of forces:
        pressure : (-16.2 -0.367 -203)
        viscous  : (-0.152 -0.00727 0.00954)
        porous   : (0 0 0)
    sum of moments:
        pressure : (-54.4 -213 5.01)
        viscous  : (0.00194 0.0354 0.0581)
        porous   : (0 0 0)

Time = 3

smoothSolver:  Solving for Ux, Initial residual = 0.217, Final residual = 0.0189, No Iterations 5
smoothSolver:  Solving for Uy, Initial residual = 0.396, Final residual = 0.028, No Iterations 5
smoothSolver:  Solving for Uz, Initial residual = 0.124, Final residual = 0.00944, No Iterations 5
GAMG:  Solving for p, Initial residual = 0.0202, Final residual = 0.000118, No Iterations 6
time step continuity errors : sum local = 0.00153, global = -1.02e-06, cumulative = 1.88e-06
smoothSolver:  Solving for omega, Initial residual = 0.538, Final residual = 7.49e-13, No Iterations 1
bounding omega, min: -1.57e+11 max: 2.29e+17 average: 5.04e+10
smoothSolver:  Solving for k, Initial residual = 0.151, Final residual = 0.000348, No Iterations 1
ExecutionTime = 58 s  ClockTime = 58 s

forceCoeffs forceCoeffs1 write:
    Cm    = -4.08
    Cd    = -3.99
    Cl    = -4.04
    Cl(f) = -6.1
    Cl(r) = 2.07

forces forces_others write:
    sum of forces:
        pressure : (-183 16.7 3.13)
        viscous  : (-0.513 -0.0373 -1.32)
        porous   : (0 0 0)
    sum of moments:
        pressure : (-4.79 3.09 47.3)
        viscous  : (-0.735 -2.14 0.266)
        porous   : (0 0 0)

forces forces_ns_rear_wing write:
    sum of forces:
        pressure : (-73.8 -12.9 -119)
        viscous  : (-0.275 -0.00128 0.111)
        porous   : (0 0 0)
    sum of moments:
        pressure : (-25.2 -252 38)
        viscous  : (0.0257 0.0205 0.088)
        porous   : (0 0 0)

forces forces_mono write:
    sum of forces:
        pressure : (-39.3 9.96 8.19)
        viscous  : (-0.0875 -0.00215 -0.0288)
        porous   : (0 0 0)
    sum of moments:
        pressure : (0.635 -9.55 -10)
        viscous  : (-0.00224 -0.0332 0.0267)
        porous   : (0 0 0)

forces forces_ns_front_wing write:
    sum of forces:
        pressure : (-31.4 -0.839 -105)
        viscous  : (-0.212 0.00172 0.0375)
        porous   : (0 0 0)
    sum of moments:
        pressure : (-37.3 62.6 13.4)
        viscous  : (0.0163 0.00446 0.0894)
        porous   : (0 0 0)

forces forces_dyfuzor write:
    sum of forces:
        pressure : (-9.67 -0.315 -136)
        viscous  : (-0.151 -0.00776 0.0099)
        porous   : (0 0 0)
    sum of moments:
        pressure : (-37 -137 3.39)
        viscous  : (0.00206 0.0366 0.0584)
        porous   : (0 0 0)

Time = 4

smoothSolver:  Solving for Ux, Initial residual = 0.0715, Final residual = 0.00696, No Iterations 5
smoothSolver:  Solving for Uy, Initial residual = 0.25, Final residual = 0.0191, No Iterations 5
smoothSolver:  Solving for Uz, Initial residual = 0.0419, Final residual = 0.00369, No Iterations 5
GAMG:  Solving for p, Initial residual = 0.0164, Final residual = 0.000108, No Iterations 6
time step continuity errors : sum local = 0.00111, global = -1.25e-06, cumulative = 6.27e-07
smoothSolver:  Solving for omega, Initial residual = 0.538, Final residual = 2.3e-12, No Iterations 1
bounding omega, min: -1.35e+10 max: 6.88e+16 average: 1.51e+10
smoothSolver:  Solving for k, Initial residual = 0.038, Final residual = 0.000895, No Iterations 1
ExecutionTime = 69.3 s  ClockTime = 70 s

forceCoeffs forceCoeffs1 write:
    Cm    = -2.92
    Cd    = -2.22
    Cl    = -3.06
    Cl(f) = -4.45
    Cl(r) = 1.39

forces forces_others write:
    sum of forces:
        pressure : (-106 25 -10.1)
        viscous  : (-0.473 -0.0324 -1.31)
        porous   : (0 0 0)
    sum of moments:
        pressure : (-4.58 -8.84 16.6)
        viscous  : (-0.735 -2.13 0.243)
        porous   : (0 0 0)

forces forces_ns_rear_wing write:
    sum of forces:
        pressure : (-38.1 -12.9 -84.7)
        viscous  : (-0.266 -0.00149 0.117)
        porous   : (0 0 0)
    sum of moments:
        pressure : (-16.4 -167 29.2)
        viscous  : (0.0275 0.0407 0.086)
        porous   : (0 0 0)

forces forces_mono write:
    sum of forces:
        pressure : (-19.8 17.2 7.74)
        viscous  : (-0.0869 0.000133 -0.0222)
        porous   : (0 0 0)
    sum of moments:
        pressure : (-0.214 -3.03 -4.64)
        viscous  : (-0.00197 -0.0287 0.026)
        porous   : (0 0 0)

forces forces_ns_front_wing write:
    sum of forces:
        pressure : (-16.5 -2.34 -77)
        viscous  : (-0.21 0.00172 0.0407)
        porous   : (0 0 0)
    sum of moments:
        pressure : (-27 48.1 6.34)
        viscous  : (0.0176 0.00398 0.0885)
        porous   : (0 0 0)

forces forces_dyfuzor write:
    sum of forces:
        pressure : (-5.93 -0.277 -98.6)
        viscous  : (-0.152 -0.00812 0.00999)
        porous   : (0 0 0)
    sum of moments:
        pressure : (-27.2 -94.6 2.44)
        viscous  : (0.00205 0.0369 0.0589)
        porous   : (0 0 0)

Time = 5

smoothSolver:  Solving for Ux, Initial residual = 0.0291, Final residual = 0.00255, No Iterations 6
smoothSolver:  Solving for Uy, Initial residual = 0.155, Final residual = 0.0136, No Iterations 5
smoothSolver:  Solving for Uz, Initial residual = 0.0192, Final residual = 0.00157, No Iterations 6
GAMG:  Solving for p, Initial residual = 0.0154, Final residual = 0.000149, No Iterations 5
time step continuity errors : sum local = 0.00127, global = -2.64e-06, cumulative = -2.02e-06
smoothSolver:  Solving for omega, Initial residual = 0.538, Final residual = 8.14e-12, No Iterations 1
bounding omega, min: -9.58e+07 max: 2.06e+16 average: 4.54e+09
smoothSolver:  Solving for k, Initial residual = 0.0135, Final residual = 0.00124, No Iterations 2
ExecutionTime = 80.2 s  ClockTime = 81 s

forceCoeffs forceCoeffs1 write:
    Cm    = -2.61
    Cd    = -1.63
    Cl    = -2.8
    Cl(f) = -4.01
    Cl(r) = 1.2

forces forces_others write:
    sum of forces:
        pressure : (-75.6 24.4 -11.2)
        viscous  : (-0.448 -0.0298 -1.31)
        porous   : (0 0 0)
    sum of moments:
        pressure : (-3.36 -8.7 7.32)
        viscous  : (-0.737 -2.13 0.227)
        porous   : (0 0 0)

forces forces_ns_rear_wing write:
    sum of forces:
        pressure : (-30.7 -16.7 -76.4)
        viscous  : (-0.263 -0.00185 0.119)
        porous   : (0 0 0)
    sum of moments:
        pressure : (-12.5 -147 33.7)
        viscous  : (0.0283 0.0464 0.0857)
        porous   : (0 0 0)

forces forces_mono write:
    sum of forces:
        pressure : (-12.5 18.8 5.92)
        viscous  : (-0.0863 0.00182 -0.0165)
        porous   : (0 0 0)
    sum of moments:
        pressure : (-0.48 -1.21 -3.94)
        viscous  : (-0.00177 -0.025 0.0253)
        porous   : (0 0 0)

forces forces_ns_front_wing write:
    sum of forces:
        pressure : (-13.2 -2.43 -70.5)
        viscous  : (-0.211 0.00188 0.0422)
        porous   : (0 0 0)
    sum of moments:
        pressure : (-24.5 44.7 4.9)
        viscous  : (0.0182 0.00352 0.0892)
        porous   : (0 0 0)

forces forces_dyfuzor write:
    sum of forces:
        pressure : (-4.95 -0.241 -88.4)
        viscous  : (-0.153 -0.00849 0.0102)
        porous   : (0 0 0)
    sum of moments:
        pressure : (-24.4 -83.9 2.14)
        viscous  : (0.00205 0.0372 0.0596)
        porous   : (0 0 0)

Time = 6

smoothSolver:  Solving for Ux, Initial residual = 0.0146, Final residual = 0.0014, No Iterations 7
smoothSolver:  Solving for Uy, Initial residual = 0.0943, Final residual = 0.00885, No Iterations 6
smoothSolver:  Solving for Uz, Initial residual = 0.0104, Final residual = 0.000947, No Iterations 7
GAMG:  Solving for p, Initial residual = 0.0146, Final residual = 0.000132, No Iterations 5
time step continuity errors : sum local = 0.000978, global = 6.85e-07, cumulative = -1.33e-06
smoothSolver:  Solving for omega, Initial residual = 0.538, Final residual = 2.8e-11, No Iterations 1
bounding omega, min: -5.22e+07 max: 6.19e+15 average: 1.36e+09
smoothSolver:  Solving for k, Initial residual = 0.0112, Final residual = 0.000681, No Iterations 4
ExecutionTime = 91.9 s  ClockTime = 93 s

forceCoeffs forceCoeffs1 write:
    Cm    = -2.49
    Cd    = -1.45
    Cl    = -2.72
    Cl(f) = -3.85
    Cl(r) = 1.13

forces forces_others write:
    sum of forces:
        pressure : (-62.1 21.4 -6.3)
        viscous  : (-0.441 -0.0273 -1.31)
        porous   : (0 0 0)
    sum of moments:
        pressure : (-1.13 -2.72 4.79)
        viscous  : (-0.739 -2.13 0.218)
        porous   : (0 0 0)

forces forces_ns_rear_wing write:
    sum of forces:
        pressure : (-31.7 -21.6 -76.6)
        viscous  : (-0.264 -0.00211 0.12)
        porous   : (0 0 0)
    sum of moments:
        pressure : (-10.3 -148 41.9)
        viscous  : (0.029 0.0494 0.0861)
        porous   : (0 0 0)

forces forces_mono write:
    sum of forces:
        pressure : (-10.8 20.5 3.16)
        viscous  : (-0.0869 0.00253 -0.0125)
        porous   : (0 0 0)
    sum of moments:
        pressure : (-0.737 -1.28 -4.41)
        viscous  : (-0.00139 -0.0223 0.0248)
        porous   : (0 0 0)

forces forces_ns_front_wing write:
    sum of forces:
        pressure : (-13.4 -2.38 -70.6)
        viscous  : (-0.213 0.00204 0.0434)
        porous   : (0 0 0)
    sum of moments:
        pressure : (-24.5 44.8 5.01)
        viscous  : (0.0187 0.00309 0.0901)
        porous   : (0 0 0)

forces forces_dyfuzor write:
    sum of forces:
        pressure : (-4.52 -0.223 -83.4)
        viscous  : (-0.154 -0.00887 0.0103)
        porous   : (0 0 0)
    sum of moments:
        pressure : (-23.1 -79 1.99)
        viscous  : (0.00204 0.0375 0.0603)
        porous   : (0 0 0)

Time = 7

smoothSolver:  Solving for Ux, Initial residual = 0.0105, Final residual = 0.000952, No Iterations 8
smoothSolver:  Solving for Uy, Initial residual = 0.0744, Final residual = 0.00645, No Iterations 7
smoothSolver:  Solving for Uz, Initial residual = 0.00776, Final residual = 0.000657, No Iterations 8
GAMG:  Solving for p, Initial residual = 0.0146, Final residual = 8.49e-05, No Iterations 6
time step continuity errors : sum local = 0.000578, global = 1.61e-06, cumulative = 2.76e-07
smoothSolver:  Solving for omega, Initial residual = 0.538, Final residual = 9.29e-11, No Iterations 1
bounding omega, min: -3.59e+07 max: 1.86e+15 average: 4.09e+08
smoothSolver:  Solving for k, Initial residual = 0.0134, Final residual = 0.000964, No Iterations 4
ExecutionTime = 104 s  ClockTime = 105 s

forceCoeffs forceCoeffs1 write:
    Cm    = -2.52
    Cd    = -1.5
    Cl    = -2.77
    Cl(f) = -3.91
    Cl(r) = 1.14

forces forces_others write:
    sum of forces:
        pressure : (-58.8 18.2 2.83)
        viscous  : (-0.443 -0.0241 -1.32)
        porous   : (0 0 0)
    sum of moments:
        pressure : (1.8 7.54 5.64)
        viscous  : (-0.742 -2.14 0.212)
        porous   : (0 0 0)

forces forces_ns_rear_wing write:
    sum of forces:
        pressure : (-36.9 -26.7 -82.3)
        viscous  : (-0.265 -0.00231 0.12)
        porous   : (0 0 0)
    sum of moments:
        pressure : (-9.51 -162 51.4)
        viscous  : (0.0292 0.0477 0.0863)
        porous   : (0 0 0)

forces forces_mono write:
    sum of forces:
        pressure : (-12 22.1 0.315)
        viscous  : (-0.0881 0.00304 -0.00903)
        porous   : (0 0 0)
    sum of moments:
        pressure : (-0.939 -2.13 -5.57)
        viscous  : (-0.001 -0.02 0.0243)
        porous   : (0 0 0)

forces forces_ns_front_wing write:
    sum of forces:
        pressure : (-15.4 -2.32 -75.1)
        viscous  : (-0.214 0.00221 0.0439)
        porous   : (0 0 0)
    sum of moments:
        pressure : (-26.1 47.3 5.91)
        viscous  : (0.0189 0.00294 0.0907)
        porous   : (0 0 0)

forces forces_dyfuzor write:
    sum of forces:
        pressure : (-4.48 -0.227 -84.7)
        viscous  : (-0.155 -0.00933 0.0105)
        porous   : (0 0 0)
    sum of moments:
        pressure : (-23.4 -80.4 1.96)
        viscous  : (0.00199 0.0377 0.061)
        porous   : (0 0 0)

Time = 8

smoothSolver:  Solving for Ux, Initial residual = 0.00909, Final residual = 0.000895, No Iterations 8
smoothSolver:  Solving for Uy, Initial residual = 0.0675, Final residual = 0.00619, No Iterations 7
smoothSolver:  Solving for Uz, Initial residual = 0.00689, Final residual = 0.000607, No Iterations 8
GAMG:  Solving for p, Initial residual = 0.0144, Final residual = 0.000144, No Iterations 5
time step continuity errors : sum local = 0.000962, global = 2.88e-06, cumulative = 3.15e-06
smoothSolver:  Solving for omega, Initial residual = 0.538, Final residual = 3.03e-10, No Iterations 1
bounding omega, min: -1.56e+08 max: 5.57e+14 average: 1.23e+08
smoothSolver:  Solving for k, Initial residual = 0.0137, Final residual = 0.001, No Iterations 4
ExecutionTime = 116 s  ClockTime = 117 s

forceCoeffs forceCoeffs1 write:
    Cm    = -2.58
    Cd    = -1.57
    Cl    = -2.84
    Cl(f) = -4
    Cl(r) = 1.16

forces forces_others write:
    sum of forces:
        pressure : (-59.4 16.9 7.29)
        viscous  : (-0.444 -0.021 -1.32)
        porous   : (0 0 0)
    sum of moments:
        pressure : (3.47 12.6 6.8)
        viscous  : (-0.743 -2.14 0.207)
        porous   : (0 0 0)

forces forces_ns_rear_wing write:
    sum of forces:
        pressure : (-40.8 -29.5 -87.2)
        viscous  : (-0.265 -0.00226 0.118)
        porous   : (0 0 0)
    sum of moments:
        pressure : (-9.73 -173 56.5)
        viscous  : (0.0289 0.045 0.0859)
        porous   : (0 0 0)

forces forces_mono write:
    sum of forces:
        pressure : (-12.2 22 -0.495)
        viscous  : (-0.0889 0.00336 -0.00639)
        porous   : (0 0 0)
    sum of moments:
        pressure : (-0.928 -2.27 -5.97)
        viscous  : (-0.000584 -0.0182 0.0238)
        porous   : (0 0 0)

forces forces_ns_front_wing write:
    sum of forces:
        pressure : (-16.8 -2.29 -78.3)
        viscous  : (-0.215 0.0024 0.0441)
        porous   : (0 0 0)
    sum of moments:
        pressure : (-27.3 49.2 6.54)
        viscous  : (0.019 0.00287 0.0911)
        porous   : (0 0 0)

forces forces_dyfuzor write:
    sum of forces:
        pressure : (-4.48 -0.262 -86.6)
        viscous  : (-0.156 -0.00981 0.0105)
        porous   : (0 0 0)
    sum of moments:
        pressure : (-23.9 -82 1.99)
        viscous  : (0.00192 0.0379 0.0616)
        porous   : (0 0 0)

Time = 9

smoothSolver:  Solving for Ux, Initial residual = 0.008, Final residual = 0.000676, No Iterations 9
smoothSolver:  Solving for Uy, Initial residual = 0.0609, Final residual = 0.00602, No Iterations 7
smoothSolver:  Solving for Uz, Initial residual = 0.00615, Final residual = 0.000572, No Iterations 8
GAMG:  Solving for p, Initial residual = 0.0143, Final residual = 8.79e-05, No Iterations 6
time step continuity errors : sum local = 0.000574, global = 1.44e-06, cumulative = 4.6e-06
smoothSolver:  Solving for omega, Initial residual = 0.538, Final residual = 9.65e-10, No Iterations 1
bounding omega, min: -1.01e+08 max: 1.67e+14 average: 3.68e+07
smoothSolver:  Solving for k, Initial residual = 0.0124, Final residual = 0.00091, No Iterations 4
ExecutionTime = 128 s  ClockTime = 130 s

forceCoeffs forceCoeffs1 write:
    Cm    = -2.67
    Cd    = -1.64
    Cl    = -2.93
    Cl(f) = -4.13
    Cl(r) = 1.2

forces forces_others write:
    sum of forces:
        pressure : (-59.9 15.9 13.4)
        viscous  : (-0.444 -0.0182 -1.32)
        porous   : (0 0 0)
    sum of moments:
        pressure : (5.35 19.5 7.78)
        viscous  : (-0.745 -2.15 0.202)
        porous   : (0 0 0)

forces forces_ns_rear_wing write:
    sum of forces:
        pressure : (-45 -32 -93.4)
        viscous  : (-0.264 -0.0021 0.116)
        porous   : (0 0 0)
    sum of moments:
        pressure : (-10.5 -186 61.1)
        viscous  : (0.0285 0.0421 0.0852)
        porous   : (0 0 0)

forces forces_mono write:
    sum of forces:
        pressure : (-13 22.6 -1.43)
        viscous  : (-0.0885 0.00354 -0.00459)
        porous   : (0 0 0)
    sum of moments:
        pressure : (-0.975 -2.54 -6.52)
        viscous  : (-0.000211 -0.0162 0.0232)
        porous   : (0 0 0)

forces forces_ns_front_wing write:
    sum of forces:
        pressure : (-18.3 -2.32 -82.3)
        viscous  : (-0.215 0.00262 0.0444)
        porous   : (0 0 0)
    sum of moments:
        pressure : (-28.8 51.5 7.21)
        viscous  : (0.0192 0.00277 0.0913)
        porous   : (0 0 0)

forces forces_dyfuzor write:
    sum of forces:
        pressure : (-4.49 -0.301 -90.2)
        viscous  : (-0.157 -0.0104 0.0106)
        porous   : (0 0 0)
    sum of moments:
        pressure : (-24.8 -84.9 2.02)
        viscous  : (0.00184 0.0381 0.0623)
        porous   : (0 0 0)

Time = 10

smoothSolver:  Solving for Ux, Initial residual = 0.00741, Final residual = 0.000645, No Iterations 9
smoothSolver:  Solving for Uy, Initial residual = 0.059, Final residual = 0.0048, No Iterations 8
smoothSolver:  Solving for Uz, Initial residual = 0.00595, Final residual = 0.000564, No Iterations 8
GAMG:  Solving for p, Initial residual = 0.0143, Final residual = 0.000104, No Iterations 5
time step continuity errors : sum local = 0.000675, global = 2.45e-06, cumulative = 7.04e-06
smoothSolver:  Solving for omega, Initial residual = 0.538, Final residual = 3.31e-09, No Iterations 1
bounding omega, min: -3.66e+07 max: 5.01e+13 average: 1.11e+07
smoothSolver:  Solving for k, Initial residual = 0.0107, Final residual = 0.00078, No Iterations 4
ExecutionTime = 140 s  ClockTime = 142 s

forceCoeffs forceCoeffs1 write:
    Cm    = -2.68
    Cd    = -1.66
    Cl    = -2.95
    Cl(f) = -4.15
    Cl(r) = 1.2

forces forces_others write:
    sum of forces:
        pressure : (-59.1 15.7 17.3)
        viscous  : (-0.44 -0.0158 -1.32)
        porous   : (0 0 0)
    sum of moments:
        pressure : (6.39 23.7 7.83)
        viscous  : (-0.747 -2.16 0.197)
        porous   : (0 0 0)

forces forces_ns_rear_wing write:
    sum of forces:
        pressure : (-46.5 -32.5 -96.8)
        viscous  : (-0.264 -0.00186 0.115)
        porous   : (0 0 0)
    sum of moments:
        pressure : (-11.3 -193 61.8)
        viscous  : (0.0282 0.0401 0.0845)
        porous   : (0 0 0)

forces forces_mono write:
    sum of forces:
        pressure : (-13.1 22.6 -1.72)
        viscous  : (-0.0876 0.0037 -0.0031)
        porous   : (0 0 0)
    sum of moments:
        pressure : (-1 -2.56 -6.66)
        viscous  : (0.000108 -0.0145 0.0227)
        porous   : (0 0 0)

forces forces_ns_front_wing write:
    sum of forces:
        pressure : (-18.8 -2.35 -84)
        viscous  : (-0.215 0.00279 0.0449)
        porous   : (0 0 0)
    sum of moments:
        pressure : (-29.5 52.6 7.44)
        viscous  : (0.0195 0.00256 0.0915)
        porous   : (0 0 0)

forces forces_dyfuzor write:
    sum of forces:
        pressure : (-4.43 -0.365 -90.6)
        viscous  : (-0.158 -0.011 0.0107)
        porous   : (0 0 0)
    sum of moments:
        pressure : (-24.9 -84.9 2.07)
        viscous  : (0.00175 0.0383 0.0631)
        porous   : (0 0 0)

Time = 11

smoothSolver:  Solving for Ux, Initial residual = 0.00671, Final residual = 0.000612, No Iterations 9
smoothSolver:  Solving for Uy, Initial residual = 0.0548, Final residual = 0.00472, No Iterations 8
smoothSolver:  Solving for Uz, Initial residual = 0.00559, Final residual = 0.000557, No Iterations 8
GAMG:  Solving for p, Initial residual = 0.0142, Final residual = 0.000116, No Iterations 5
time step continuity errors : sum local = 0.000743, global = 2.93e-06, cumulative = 9.97e-06
smoothSolver:  Solving for omega, Initial residual = 0.538, Final residual = 1.09e-08, No Iterations 1
bounding omega, min: -6.86e+07 max: 1.5e+13 average: 3.33e+06
smoothSolver:  Solving for k, Initial residual = 0.00912, Final residual = 0.000655, No Iterations 4
bounding k, min: -1.06e-08 max: 1.63 average: 0.000139
ExecutionTime = 153 s  ClockTime = 155 s

forceCoeffs forceCoeffs1 write:
    Cm    = -2.68
    Cd    = -1.66
    Cl    = -2.96
    Cl(f) = -4.15
    Cl(r) = 1.2

forces forces_others write:
    sum of forces:
        pressure : (-57.9 15.7 22.3)
        viscous  : (-0.434 -0.0148 -1.32)
        porous   : (0 0 0)
    sum of moments:
        pressure : (7.36 28.9 7.31)
        viscous  : (-0.749 -2.16 0.192)
        porous   : (0 0 0)

forces forces_ns_rear_wing write:
    sum of forces:
        pressure : (-47.8 -32.5 -100)
        viscous  : (-0.264 -0.00163 0.114)
        porous   : (0 0 0)
    sum of moments:
        pressure : (-12.3 -200 61.6)
        viscous  : (0.0279 0.0374 0.0841)
        porous   : (0 0 0)

forces forces_mono write:
    sum of forces:
        pressure : (-12.9 22.8 -2.09)
        viscous  : (-0.0874 0.00381 -0.00164)
        porous   : (0 0 0)
    sum of moments:
        pressure : (-1.07 -2.56 -6.83)
        viscous  : (0.000405 -0.0131 0.0224)
        porous   : (0 0 0)

forces forces_ns_front_wing write:
    sum of forces:
        pressure : (-19.2 -2.31 -85.8)
        viscous  : (-0.216 0.00296 0.0455)
        porous   : (0 0 0)
    sum of moments:
        pressure : (-30.2 53.7 7.69)
        viscous  : (0.0197 0.00232 0.0916)
        porous   : (0 0 0)

forces forces_dyfuzor write:
    sum of forces:
        pressure : (-4.35 -0.429 -91.3)
        viscous  : (-0.158 -0.0116 0.0107)
        porous   : (0 0 0)
    sum of moments:
        pressure : (-25 -85 2.1)
        viscous  : (0.00166 0.0385 0.0638)
        porous   : (0 0 0)

Time = 12

smoothSolver:  Solving for Ux, Initial residual = 0.0064, Final residual = 0.000592, No Iterations 9
smoothSolver:  Solving for Uy, Initial residual = 0.0536, Final residual = 0.00468, No Iterations 8
smoothSolver:  Solving for Uz, Initial residual = 0.00554, Final residual = 0.000445, No Iterations 9
GAMG:  Solving for p, Initial residual = 0.0144, Final residual = 0.000106, No Iterations 5
time step continuity errors : sum local = 0.000677, global = 2.81e-06, cumulative = 1.28e-05
smoothSolver:  Solving for omega, Initial residual = 0.538, Final residual = 3.43e-08, No Iterations 1
bounding omega, min: -5.46e+06 max: 4.51e+12 average: 1.02e+06
smoothSolver:  Solving for k, Initial residual = 0.00776, Final residual = 0.000548, No Iterations 4
bounding k, min: -8.13e-09 max: 4.46 average: 0.000152
ExecutionTime = 166 s  ClockTime = 168 s

forceCoeffs forceCoeffs1 write:
    Cm    = -2.68
    Cd    = -1.64
    Cl    = -2.97
    Cl(f) = -4.16
    Cl(r) = 1.19

forces forces_others write:
    sum of forces:
        pressure : (-55.8 15.9 26.5)
        viscous  : (-0.426 -0.0148 -1.32)
        porous   : (0 0 0)
    sum of moments:
        pressure : (7.86 33 6.03)
        viscous  : (-0.751 -2.17 0.189)
        porous   : (0 0 0)

forces forces_ns_rear_wing write:
    sum of forces:
        pressure : (-48.4 -32.1 -103)
        viscous  : (-0.264 -0.00142 0.113)
        porous   : (0 0 0)
    sum of moments:
        pressure : (-13.2 -205 60.6)
        viscous  : (0.0276 0.0352 0.0836)
        porous   : (0 0 0)

forces forces_mono write:
    sum of forces:
        pressure : (-12.7 23.2 -2.5)
        viscous  : (-0.0874 0.00404 -0.000435)
        porous   : (0 0 0)
    sum of moments:
        pressure : (-1.15 -2.56 -6.94)
        viscous  : (0.000613 -0.012 0.0222)
        porous   : (0 0 0)

forces forces_ns_front_wing write:
    sum of forces:
        pressure : (-19.5 -2.22 -87.5)
        viscous  : (-0.216 0.00315 0.046)
        porous   : (0 0 0)
    sum of moments:
        pressure : (-30.8 54.8 7.9)
        viscous  : (0.02 0.00208 0.0918)
        porous   : (0 0 0)

forces forces_dyfuzor write:
    sum of forces:
        pressure : (-4.26 -0.497 -92.2)
        viscous  : (-0.159 -0.0122 0.0108)
        porous   : (0 0 0)
    sum of moments:
        pressure : (-25.3 -85.1 2.14)
        viscous  : (0.00156 0.0386 0.0644)
        porous   : (0 0 0)

Time = 13

smoothSolver:  Solving for Ux, Initial residual = 0.00621, Final residual = 0.000581, No Iterations 9
smoothSolver:  Solving for Uy, Initial residual = 0.0526, Final residual = 0.00466, No Iterations 8
smoothSolver:  Solving for Uz, Initial residual = 0.00549, Final residual = 0.000441, No Iterations 9
GAMG:  Solving for p, Initial residual = 0.0145, Final residual = 9.61e-05, No Iterations 5
time step continuity errors : sum local = 0.000608, global = 2.58e-06, cumulative = 1.54e-05
smoothSolver:  Solving for omega, Initial residual = 0.535, Final residual = 1.04e-07, No Iterations 1
bounding omega, min: -1.15e+07 max: 1.35e+12 average: 3.2e+05
smoothSolver:  Solving for k, Initial residual = 0.00662, Final residual = 0.000457, No Iterations 4
bounding k, min: -4.98e-09 max: 7.28 average: 0.000171
ExecutionTime = 179 s  ClockTime = 181 s

forceCoeffs forceCoeffs1 write:
    Cm    = -2.68
    Cd    = -1.6
    Cl    = -2.99
    Cl(f) = -4.18
    Cl(r) = 1.19

forces forces_others write:
    sum of forces:
        pressure : (-53.1 16.5 29.4)
        viscous  : (-0.417 -0.0153 -1.33)
        porous   : (0 0 0)
    sum of moments:
        pressure : (7.94 35.5 4.25)
        viscous  : (-0.753 -2.18 0.185)
        porous   : (0 0 0)

forces forces_ns_rear_wing write:
    sum of forces:
        pressure : (-48.4 -31.4 -106)
        viscous  : (-0.264 -0.00121 0.113)
        porous   : (0 0 0)
    sum of moments:
        pressure : (-14.1 -209 58.9)
        viscous  : (0.0275 0.0352 0.083)
        porous   : (0 0 0)

forces forces_mono write:
    sum of forces:
        pressure : (-12.4 23.3 -2.82)
        viscous  : (-0.0876 0.00423 0.000633)
        porous   : (0 0 0)
    sum of moments:
        pressure : (-1.24 -2.54 -6.97)
        viscous  : (0.000769 -0.0111 0.0221)
        porous   : (0 0 0)

forces forces_ns_front_wing write:
    sum of forces:
        pressure : (-19.6 -2.09 -88.9)
        viscous  : (-0.216 0.00331 0.047)
        porous   : (0 0 0)
    sum of moments:
        pressure : (-31.3 55.8 8.04)
        viscous  : (0.0204 0.00178 0.0919)
        porous   : (0 0 0)

forces forces_dyfuzor write:
    sum of forces:
        pressure : (-4.16 -0.572 -92.9)
        viscous  : (-0.159 -0.0128 0.0108)
        porous   : (0 0 0)
    sum of moments:
        pressure : (-25.6 -85.2 2.18)
        viscous  : (0.00146 0.0388 0.0651)
        porous   : (0 0 0)

Time = 14

smoothSolver:  Solving for Ux, Initial residual = 0.00609, Final residual = 0.000572, No Iterations 9
smoothSolver:  Solving for Uy, Initial residual = 0.0515, Final residual = 0.00463, No Iterations 8
smoothSolver:  Solving for Uz, Initial residual = 0.00541, Final residual = 0.000436, No Iterations 9
GAMG:  Solving for p, Initial residual = 0.0146, Final residual = 9.16e-05, No Iterations 5
time step continuity errors : sum local = 0.000573, global = 2.31e-06, cumulative = 1.77e-05
smoothSolver:  Solving for omega, Initial residual = 0.528, Final residual = 3.25e-07, No Iterations 1
bounding omega, min: -7.61e+06 max: 4.06e+11 average: 1.12e+05
smoothSolver:  Solving for k, Initial residual = 0.00571, Final residual = 0.000382, No Iterations 4
bounding k, min: -2.95e-09 max: 11.2 average: 0.000195
ExecutionTime = 191 s  ClockTime = 193 s

forceCoeffs forceCoeffs1 write:
    Cm    = -2.69
    Cd    = -1.55
    Cl    = -3.01
    Cl(f) = -4.19
    Cl(r) = 1.18

forces forces_others write:
    sum of forces:
        pressure : (-50.2 17.1 31.3)
        viscous  : (-0.407 -0.0162 -1.33)
        porous   : (0 0 0)
    sum of moments:
        pressure : (7.77 37 2.32)
        viscous  : (-0.755 -2.19 0.182)
        porous   : (0 0 0)

forces forces_ns_rear_wing write:
    sum of forces:
        pressure : (-47.8 -30.3 -107)
        viscous  : (-0.262 -0.00104 0.115)
        porous   : (0 0 0)
    sum of moments:
        pressure : (-15.1 -211 56.5)
        viscous  : (0.0279 0.0398 0.0822)
        porous   : (0 0 0)

forces forces_mono write:
    sum of forces:
        pressure : (-12 23.3 -3.08)
        viscous  : (-0.0879 0.00428 0.00154)
        porous   : (0 0 0)
    sum of moments:
        pressure : (-1.32 -2.54 -6.92)
        viscous  : (0.000915 -0.0103 0.0221)
        porous   : (0 0 0)

forces forces_ns_front_wing write:
    sum of forces:
        pressure : (-19.6 -1.92 -90.1)
        viscous  : (-0.215 0.00345 0.0483)
        porous   : (0 0 0)
    sum of moments:
        pressure : (-31.8 56.7 8.14)
        viscous  : (0.021 0.00142 0.0917)
        porous   : (0 0 0)

forces forces_dyfuzor write:
    sum of forces:
        pressure : (-4.07 -0.649 -93.5)
        viscous  : (-0.16 -0.0134 0.0108)
        porous   : (0 0 0)
    sum of moments:
        pressure : (-25.9 -85.1 2.23)
        viscous  : (0.00135 0.0389 0.0657)
        porous   : (0 0 0)

Time = 15

smoothSolver:  Solving for Ux, Initial residual = 0.00601, Final residual = 0.000565, No Iterations 9
smoothSolver:  Solving for Uy, Initial residual = 0.0506, Final residual = 0.00459, No Iterations 8
smoothSolver:  Solving for Uz, Initial residual = 0.00531, Final residual = 0.000427, No Iterations 9
GAMG:  Solving for p, Initial residual = 0.0148, Final residual = 9.01e-05, No Iterations 5
time step continuity errors : sum local = 0.000556, global = 1.97e-06, cumulative = 1.96e-05
smoothSolver:  Solving for omega, Initial residual = 0.501, Final residual = 1.02e-06, No Iterations 1
bounding omega, min: -6.48e+07 max: 1.22e+11 average: 4.93e+04
smoothSolver:  Solving for k, Initial residual = 0.00508, Final residual = 0.000323, No Iterations 4
bounding k, min: -8.33e-09 max: 57 average: 0.000231
ExecutionTime = 204 s  ClockTime = 207 s

forceCoeffs forceCoeffs1 write:
    Cm    = -2.69
    Cd    = -1.5
    Cl    = -3.03
    Cl(f) = -4.21
    Cl(r) = 1.18

forces forces_others write:
    sum of forces:
        pressure : (-47.6 17.6 32.6)
        viscous  : (-0.396 -0.0174 -1.33)
        porous   : (0 0 0)
    sum of moments:
        pressure : (7.44 37.4 0.571)
        viscous  : (-0.757 -2.19 0.179)
        porous   : (0 0 0)

forces forces_ns_rear_wing write:
    sum of forces:
        pressure : (-46.8 -29 -109)
        viscous  : (-0.259 -0.000908 0.117)
        porous   : (0 0 0)
    sum of moments:
        pressure : (-16 -212 53.7)
        viscous  : (0.0283 0.0455 0.0811)
        porous   : (0 0 0)

forces forces_mono write:
    sum of forces:
        pressure : (-11.7 23.2 -3.38)
        viscous  : (-0.0881 0.00442 0.0022)
        porous   : (0 0 0)
    sum of moments:
        pressure : (-1.41 -2.62 -6.81)
        viscous  : (0.001 -0.00977 0.022)
        porous   : (0 0 0)

forces forces_ns_front_wing write:
    sum of forces:
        pressure : (-19.5 -1.73 -91.3)
        viscous  : (-0.215 0.00359 0.0497)
        porous   : (0 0 0)
    sum of moments:
        pressure : (-32.2 57.5 8.22)
        viscous  : (0.0216 0.0011 0.0915)
        porous   : (0 0 0)

forces forces_dyfuzor write:
    sum of forces:
        pressure : (-3.96 -0.73 -93.6)
        viscous  : (-0.16 -0.0139 0.0108)
        porous   : (0 0 0)
    sum of moments:
        pressure : (-26.1 -84.7 2.28)
        viscous  : (0.00127 0.039 0.0662)
        porous   : (0 0 0)

Time = 16

smoothSolver:  Solving for Ux, Initial residual = 0.00592, Final residual = 0.000555, No Iterations 9
smoothSolver:  Solving for Uy, Initial residual = 0.0497, Final residual = 0.00453, No Iterations 8
smoothSolver:  Solving for Uz, Initial residual = 0.0052, Final residual = 0.000417, No Iterations 9
GAMG:  Solving for p, Initial residual = 0.015, Final residual = 9.15e-05, No Iterations 5
time step continuity errors : sum local = 0.000556, global = 1.51e-06, cumulative = 2.12e-05
smoothSolver:  Solving for omega, Initial residual = 0.393, Final residual = 3.13e-06, No Iterations 1
bounding omega, min: -2.58e+05 max: 3.65e+10 average: 3.06e+04
smoothSolver:  Solving for k, Initial residual = 0.00464, Final residual = 0.000274, No Iterations 4
bounding k, min: -6.69e-09 max: 95.6 average: 0.000282
ExecutionTime = 217 s  ClockTime = 220 s

forceCoeffs forceCoeffs1 write:
    Cm    = -2.69
    Cd    = -1.46
    Cl    = -3.05
    Cl(f) = -4.22
    Cl(r) = 1.17

forces forces_others write:
    sum of forces:
        pressure : (-45.1 17.7 33.3)
        viscous  : (-0.385 -0.0189 -1.34)
        porous   : (0 0 0)
    sum of moments:
        pressure : (7.08 37.1 -0.857)
        viscous  : (-0.759 -2.2 0.176)
        porous   : (0 0 0)

forces forces_ns_rear_wing write:
    sum of forces:
        pressure : (-45.7 -27.5 -110)
        viscous  : (-0.255 -0.000822 0.118)
        porous   : (0 0 0)
    sum of moments:
        pressure : (-16.9 -213 50.5)
        viscous  : (0.0286 0.0508 0.08)
        porous   : (0 0 0)

forces forces_mono write:
    sum of forces:
        pressure : (-11.5 23 -3.72)
        viscous  : (-0.0882 0.00445 0.00271)
        porous   : (0 0 0)
    sum of moments:
        pressure : (-1.51 -2.73 -6.7)
        viscous  : (0.00108 -0.00932 0.022)
        porous   : (0 0 0)

forces forces_ns_front_wing write:
    sum of forces:
        pressure : (-19.4 -1.54 -92.5)
        viscous  : (-0.214 0.00367 0.051)
        porous   : (0 0 0)
    sum of moments:
        pressure : (-32.6 58.4 8.3)
        viscous  : (0.0221 0.000824 0.0912)
        porous   : (0 0 0)

forces forces_dyfuzor write:
    sum of forces:
        pressure : (-3.85 -0.809 -93.4)
        viscous  : (-0.16 -0.0145 0.0109)
        porous   : (0 0 0)
    sum of moments:
        pressure : (-26.1 -84 2.33)
        viscous  : (0.0012 0.0391 0.0667)
        porous   : (0 0 0)

Time = 17

smoothSolver:  Solving for Ux, Initial residual = 0.00582, Final residual = 0.000543, No Iterations 9
smoothSolver:  Solving for Uy, Initial residual = 0.049, Final residual = 0.00447, No Iterations 8
smoothSolver:  Solving for Uz, Initial residual = 0.00508, Final residual = 0.000505, No Iterations 8
GAMG:  Solving for p, Initial residual = 0.0153, Final residual = 9.34e-05, No Iterations 5
time step continuity errors : sum local = 0.000559, global = 8.83e-07, cumulative = 2.2e-05
smoothSolver:  Solving for omega, Initial residual = 0.152, Final residual = 6.48e-06, No Iterations 1
bounding omega, min: -1.67e+06 max: 1.1e+10 average: 2.51e+04
smoothSolver:  Solving for k, Initial residual = 0.00465, Final residual = 0.000238, No Iterations 4
bounding k, min: -4.91e-09 max: 111 average: 0.000365
ExecutionTime = 229 s  ClockTime = 232 s

forceCoeffs forceCoeffs1 write:
    Cm    = -2.69
    Cd    = -1.42
    Cl    = -3.06
    Cl(f) = -4.22
    Cl(r) = 1.16

forces forces_others write:
    sum of forces:
        pressure : (-43 17.5 34)
        viscous  : (-0.374 -0.0205 -1.34)
        porous   : (0 0 0)
    sum of moments:
        pressure : (6.85 36.7 -1.8)
        viscous  : (-0.763 -2.21 0.174)
        porous   : (0 0 0)

forces forces_ns_rear_wing write:
    sum of forces:
        pressure : (-44.6 -25.8 -110)
        viscous  : (-0.252 -0.000734 0.118)
        porous   : (0 0 0)
    sum of moments:
        pressure : (-17.8 -213 47.2)
        viscous  : (0.0287 0.0547 0.0789)
        porous   : (0 0 0)

forces forces_mono write:
    sum of forces:
        pressure : (-11.5 22.8 -4.04)
        viscous  : (-0.0885 0.00456 0.00307)
        porous   : (0 0 0)
    sum of moments:
        pressure : (-1.59 -2.9 -6.61)
        viscous  : (0.00112 -0.00903 0.022)
        porous   : (0 0 0)

forces forces_ns_front_wing write:
    sum of forces:
        pressure : (-19.3 -1.35 -93.5)
        viscous  : (-0.214 0.00372 0.0519)
        porous   : (0 0 0)
    sum of moments:
        pressure : (-32.9 59.2 8.37)
        viscous  : (0.0226 0.000642 0.091)
        porous   : (0 0 0)

forces forces_dyfuzor write:
    sum of forces:
        pressure : (-3.74 -0.884 -92.9)
        viscous  : (-0.161 -0.015 0.0109)
        porous   : (0 0 0)
    sum of moments:
        pressure : (-26.1 -83.1 2.39)
        viscous  : (0.00113 0.0391 0.0671)
        porous   : (0 0 0)

Time = 18

smoothSolver:  Solving for Ux, Initial residual = 0.00566, Final residual = 0.000528, No Iterations 9
smoothSolver:  Solving for Uy, Initial residual = 0.0479, Final residual = 0.00439, No Iterations 8
smoothSolver:  Solving for Uz, Initial residual = 0.00494, Final residual = 0.000492, No Iterations 8
GAMG:  Solving for p, Initial residual = 0.0155, Final residual = 9.16e-05, No Iterations 5
time step continuity errors : sum local = 0.000541, global = 8.75e-07, cumulative = 2.29e-05
smoothSolver:  Solving for omega, Initial residual = 0.0223, Final residual = 7.41e-06, No Iterations 1
bounding omega, min: -6.21e+05 max: 3.29e+09 average: 2.35e+04
smoothSolver:  Solving for k, Initial residual = 0.00529, Final residual = 0.000452, No Iterations 3
bounding k, min: -0.000285 max: 137 average: 0.000513
ExecutionTime = 241 s  ClockTime = 245 s

forceCoeffs forceCoeffs1 write:
    Cm    = -2.69
    Cd    = -1.38
    Cl    = -3.06
    Cl(f) = -4.22
    Cl(r) = 1.15

forces forces_others write:
    sum of forces:
        pressure : (-40.8 16.9 34.5)
        viscous  : (-0.364 -0.0225 -1.35)
        porous   : (0 0 0)
    sum of moments:
        pressure : (6.64 36.1 -2.29)
        viscous  : (-0.768 -2.23 0.172)
        porous   : (0 0 0)

forces forces_ns_rear_wing write:
    sum of forces:
        pressure : (-43.6 -24.2 -111)
        viscous  : (-0.248 -0.000647 0.118)
        porous   : (0 0 0)
    sum of moments:
        pressure : (-18.6 -213 44.2)
        viscous  : (0.0286 0.0577 0.0777)
        porous   : (0 0 0)

forces forces_mono write:
    sum of forces:
        pressure : (-11.6 22.7 -4.35)
        viscous  : (-0.0886 0.00457 0.00332)
        porous   : (0 0 0)
    sum of moments:
        pressure : (-1.67 -3.08 -6.58)
        viscous  : (0.00117 -0.00882 0.022)
        porous   : (0 0 0)

forces forces_ns_front_wing write:
    sum of forces:
        pressure : (-19.2 -1.18 -94.4)
        viscous  : (-0.213 0.00377 0.0525)
        porous   : (0 0 0)
    sum of moments:
        pressure : (-33.2 59.9 8.44)
        viscous  : (0.0229 0.000575 0.0908)
        porous   : (0 0 0)

forces forces_dyfuzor write:
    sum of forces:
        pressure : (-3.65 -0.956 -92.3)
        viscous  : (-0.161 -0.0154 0.011)
        porous   : (0 0 0)
    sum of moments:
        pressure : (-26.1 -82.2 2.45)
        viscous  : (0.00107 0.0392 0.0675)
        porous   : (0 0 0)

Time = 19

smoothSolver:  Solving for Ux, Initial residual = 0.00548, Final residual = 0.000512, No Iterations 9
smoothSolver:  Solving for Uy, Initial residual = 0.0469, Final residual = 0.00434, No Iterations 8
smoothSolver:  Solving for Uz, Initial residual = 0.00481, Final residual = 0.000479, No Iterations 8
GAMG:  Solving for p, Initial residual = 0.0156, Final residual = 8.93e-05, No Iterations 5
time step continuity errors : sum local = 0.000522, global = 1.43e-06, cumulative = 2.43e-05
smoothSolver:  Solving for omega, Initial residual = 0.00224, Final residual = 7.21e-06, No Iterations 1
bounding omega, min: -3.86e+04 max: 9.87e+08 average: 2.3e+04
smoothSolver:  Solving for k, Initial residual = 0.00588, Final residual = 0.000433, No Iterations 3
bounding k, min: -0.000335 max: 201 average: 0.000754
ExecutionTime = 254 s  ClockTime = 257 s

forceCoeffs forceCoeffs1 write:
    Cm    = -2.69
    Cd    = -1.35
    Cl    = -3.07
    Cl(f) = -4.22
    Cl(r) = 1.15

forces forces_others write:
    sum of forces:
        pressure : (-38.8 15.9 35.1)
        viscous  : (-0.353 -0.0246 -1.36)
        porous   : (0 0 0)
    sum of moments:
        pressure : (6.55 35.6 -2.4)
        viscous  : (-0.776 -2.25 0.172)
        porous   : (0 0 0)

forces forces_ns_rear_wing write:
    sum of forces:
        pressure : (-42.8 -22.7 -111)
        viscous  : (-0.244 -0.000531 0.118)
        porous   : (0 0 0)
    sum of moments:
        pressure : (-19.3 -213 41.5)
        viscous  : (0.0285 0.0606 0.0762)
        porous   : (0 0 0)

forces forces_mono write:
    sum of forces:
        pressure : (-11.8 22.6 -4.65)
        viscous  : (-0.0887 0.00456 0.00356)
        porous   : (0 0 0)
    sum of moments:
        pressure : (-1.74 -3.25 -6.62)
        viscous  : (0.00119 -0.00867 0.022)
        porous   : (0 0 0)

forces forces_ns_front_wing write:
    sum of forces:
        pressure : (-19.1 -1.05 -95.2)
        viscous  : (-0.212 0.0038 0.0529)
        porous   : (0 0 0)
    sum of moments:
        pressure : (-33.5 60.5 8.5)
        viscous  : (0.0231 0.000621 0.0906)
        porous   : (0 0 0)

forces forces_dyfuzor write:
    sum of forces:
        pressure : (-3.59 -1.02 -91.9)
        viscous  : (-0.161 -0.0158 0.0111)
        porous   : (0 0 0)
    sum of moments:
        pressure : (-26.1 -81.6 2.51)
        viscous  : (0.00102 0.0392 0.0678)
        porous   : (0 0 0)

Time = 20

smoothSolver:  Solving for Ux, Initial residual = 0.00529, Final residual = 0.000498, No Iterations 9
smoothSolver:  Solving for Uy, Initial residual = 0.046, Final residual = 0.00431, No Iterations 8
smoothSolver:  Solving for Uz, Initial residual = 0.00469, Final residual = 0.000468, No Iterations 8
GAMG:  Solving for p, Initial residual = 0.0156, Final residual = 0.000156, No Iterations 4
time step continuity errors : sum local = 0.000908, global = 3.67e-06, cumulative = 2.8e-05
smoothSolver:  Solving for omega, Initial residual = 0.000221, Final residual = 7.06e-06, No Iterations 1
bounding omega, min: -2.11e+05 max: 2.96e+08 average: 2.29e+04
smoothSolver:  Solving for k, Initial residual = 0.00647, Final residual = 0.000465, No Iterations 3
bounding k, min: -0.0159 max: 248 average: 0.00113
ExecutionTime = 266 s  ClockTime = 270 s

forceCoeffs forceCoeffs1 write:
    Cm    = -2.7
    Cd    = -1.32
    Cl    = -3.09
    Cl(f) = -4.24
    Cl(r) = 1.16

forces forces_others write:
    sum of forces:
        pressure : (-37 14.7 35.5)
        viscous  : (-0.343 -0.0266 -1.38)
        porous   : (0 0 0)
    sum of moments:
        pressure : (6.48 35.1 -2.25)
        viscous  : (-0.786 -2.28 0.17)
        porous   : (0 0 0)

forces forces_ns_rear_wing write:
    sum of forces:
        pressure : (-42.4 -21.9 -112)
        viscous  : (-0.239 -0.000459 0.117)
        porous   : (0 0 0)
    sum of moments:
        pressure : (-19.8 -214 40.1)
        viscous  : (0.0283 0.0635 0.0748)
        porous   : (0 0 0)

forces forces_mono write:
    sum of forces:
        pressure : (-12 22.5 -4.87)
        viscous  : (-0.0885 0.00455 0.00387)
        porous   : (0 0 0)
    sum of moments:
        pressure : (-1.79 -3.37 -6.66)
        viscous  : (0.00124 -0.00842 0.0219)
        porous   : (0 0 0)

forces forces_ns_front_wing write:
    sum of forces:
        pressure : (-19.1 -0.96 -95.9)
        viscous  : (-0.212 0.00383 0.0531)
        porous   : (0 0 0)
    sum of moments:
        pressure : (-33.7 61.1 8.55)
        viscous  : (0.0233 0.000668 0.0905)
        porous   : (0 0 0)

forces forces_dyfuzor write:
    sum of forces:
        pressure : (-3.57 -1.08 -91.9)
        viscous  : (-0.161 -0.0163 0.0111)
        porous   : (0 0 0)
    sum of moments:
        pressure : (-26.2 -81.5 2.58)
        viscous  : (0.000965 0.0393 0.068)
        porous   : (0 0 0)

Time = 21

smoothSolver:  Solving for Ux, Initial residual = 0.00508, Final residual = 0.000485, No Iterations 9
smoothSolver:  Solving for Uy, Initial residual = 0.0447, Final residual = 0.0043, No Iterations 8
smoothSolver:  Solving for Uz, Initial residual = 0.00456, Final residual = 0.000369, No Iterations 9
GAMG:  Solving for p, Initial residual = 0.0156, Final residual = 0.0001, No Iterations 5
time step continuity errors : sum local = 0.000585, global = 3.88e-06, cumulative = 3.19e-05
smoothSolver:  Solving for omega, Initial residual = 3.39e-05, Final residual = 3.25e-06, No Iterations 2
bounding omega, min: -3.4e+04 max: 8.88e+07 average: 2.3e+04
smoothSolver:  Solving for k, Initial residual = 0.00659, Final residual = 0.000478, No Iterations 3
bounding k, min: -0.000803 max: 263 average: 0.00172
ExecutionTime = 278 s  ClockTime = 282 s

forceCoeffs forceCoeffs1 write:
    Cm    = -2.71
    Cd    = -1.29
    Cl    = -3.1
    Cl(f) = -4.25
    Cl(r) = 1.16

forces forces_others write:
    sum of forces:
        pressure : (-34.8 13.2 36.7)
        viscous  : (-0.334 -0.0283 -1.4)
        porous   : (0 0 0)
    sum of moments:
        pressure : (6.71 35.2 -2.04)
        viscous  : (-0.8 -2.32 0.17)
        porous   : (0 0 0)

forces forces_ns_rear_wing write:
    sum of forces:
        pressure : (-42.1 -20.9 -113)
        viscous  : (-0.237 -0.000379 0.116)
        porous   : (0 0 0)
    sum of moments:
        pressure : (-20.3 -215 38.5)
        viscous  : (0.0281 0.064 0.074)
        porous   : (0 0 0)

forces forces_mono write:
    sum of forces:
        pressure : (-12.2 22.7 -5.24)
        viscous  : (-0.0883 0.00453 0.00423)
        porous   : (0 0 0)
    sum of moments:
        pressure : (-1.87 -3.53 -6.82)
        viscous  : (0.00131 -0.00816 0.0219)
        porous   : (0 0 0)

forces forces_ns_front_wing write:
    sum of forces:
        pressure : (-19.1 -0.871 -97)
        viscous  : (-0.212 0.00385 0.053)
        porous   : (0 0 0)
    sum of moments:
        pressure : (-34 61.9 8.62)
        viscous  : (0.0233 0.000759 0.0906)
        porous   : (0 0 0)

forces forces_dyfuzor write:
    sum of forces:
        pressure : (-3.54 -1.14 -92.1)
        viscous  : (-0.161 -0.0167 0.0112)
        porous   : (0 0 0)
    sum of moments:
        pressure : (-26.5 -81.5 2.64)
        viscous  : (0.000915 0.0394 0.0683)
        porous   : (0 0 0)

Time = 22

smoothSolver:  Solving for Ux, Initial residual = 0.00503, Final residual = 0.000478, No Iterations 9
smoothSolver:  Solving for Uy, Initial residual = 0.0452, Final residual = 0.00434, No Iterations 8
smoothSolver:  Solving for Uz, Initial residual = 0.0046, Final residual = 0.000455, No Iterations 8
GAMG:  Solving for p, Initial residual = 0.0156, Final residual = 0.000153, No Iterations 4
time step continuity errors : sum local = 0.0009, global = 5.84e-06, cumulative = 3.77e-05
smoothSolver:  Solving for omega, Initial residual = 1.63e-05, Final residual = 1.53e-06, No Iterations 3
smoothSolver:  Solving for k, Initial residual = 0.00589, Final residual = 0.000443, No Iterations 3
bounding k, min: -0.019 max: 275 average: 0.00253
ExecutionTime = 290 s  ClockTime = 294 s

forceCoeffs forceCoeffs1 write:
    Cm    = -2.72
    Cd    = -1.28
    Cl    = -3.12
    Cl(f) = -4.28
    Cl(r) = 1.16

forces forces_others write:
    sum of forces:
        pressure : (-33.5 12 37.1)
        viscous  : (-0.325 -0.0297 -1.43)
        porous   : (0 0 0)
    sum of moments:
        pressure : (6.77 35.1 -1.74)
        viscous  : (-0.818 -2.36 0.168)
        porous   : (0 0 0)

forces forces_ns_rear_wing write:
    sum of forces:
        pressure : (-42.1 -21 -114)
        viscous  : (-0.236 -0.000286 0.116)
        porous   : (0 0 0)
    sum of moments:
        pressure : (-20.4 -216 38.8)
        viscous  : (0.0278 0.0629 0.0735)
        porous   : (0 0 0)

forces forces_mono write:
    sum of forces:
        pressure : (-12.3 22.7 -5.38)
        viscous  : (-0.0881 0.0045 0.00455)
        porous   : (0 0 0)
    sum of moments:
        pressure : (-1.91 -3.6 -6.86)
        viscous  : (0.0014 -0.00792 0.0218)
        porous   : (0 0 0)

forces forces_ns_front_wing write:
    sum of forces:
        pressure : (-19.1 -0.828 -97.7)
        viscous  : (-0.212 0.00387 0.0528)
        porous   : (0 0 0)
    sum of moments:
        pressure : (-34.2 62.4 8.66)
        viscous  : (0.0233 0.000884 0.0908)
        porous   : (0 0 0)

forces forces_dyfuzor write:
    sum of forces:
        pressure : (-3.54 -1.19 -92.3)
        viscous  : (-0.161 -0.0171 0.0113)
        porous   : (0 0 0)
    sum of moments:
        pressure : (-26.7 -81.6 2.7)
        viscous  : (0.000864 0.0394 0.0686)
        porous   : (0 0 0)

Time = 23

smoothSolver:  Solving for Ux, Initial residual = 0.00484, Final residual = 0.000469, No Iterations 9
smoothSolver:  Solving for Uy, Initial residual = 0.0434, Final residual = 0.00432, No Iterations 8
smoothSolver:  Solving for Uz, Initial residual = 0.00443, Final residual = 0.000365, No Iterations 9
GAMG:  Solving for p, Initial residual = 0.0155, Final residual = 0.0001, No Iterations 5
time step continuity errors : sum local = 0.000595, global = 4.83e-06, cumulative = 4.26e-05
smoothSolver:  Solving for omega, Initial residual = 1.43e-05, Final residual = 7.43e-07, No Iterations 4
smoothSolver:  Solving for k, Initial residual = 0.0052, Final residual = 0.00038, No Iterations 3
bounding k, min: -0.00103 max: 285 average: 0.0036
ExecutionTime = 303 s  ClockTime = 307 s

forceCoeffs forceCoeffs1 write:
    Cm    = -2.74
    Cd    = -1.27
    Cl    = -3.14
    Cl(f) = -4.31
    Cl(r) = 1.17

forces forces_others write:
    sum of forces:
        pressure : (-32.2 10.7 37.9)
        viscous  : (-0.316 -0.0315 -1.47)
        porous   : (0 0 0)
    sum of moments:
        pressure : (7.01 35.2 -1.4)
        viscous  : (-0.84 -2.42 0.166)
        porous   : (0 0 0)

forces forces_ns_rear_wing write:
    sum of forces:
        pressure : (-42.4 -21.1 -115)
        viscous  : (-0.236 -0.000132 0.115)
        porous   : (0 0 0)
    sum of moments:
        pressure : (-20.6 -218 39.5)
        viscous  : (0.0276 0.0615 0.0731)
        porous   : (0 0 0)

forces forces_mono write:
    sum of forces:
        pressure : (-12.3 22.8 -5.55)
        viscous  : (-0.0878 0.00455 0.00483)
        porous   : (0 0 0)
    sum of moments:
        pressure : (-1.98 -3.63 -6.97)
        viscous  : (0.0015 -0.00767 0.0217)
        porous   : (0 0 0)

forces forces_ns_front_wing write:
    sum of forces:
        pressure : (-19.1 -0.773 -98.7)
        viscous  : (-0.213 0.00388 0.0526)
        porous   : (0 0 0)
    sum of moments:
        pressure : (-34.5 63.1 8.73)
        viscous  : (0.0233 0.00104 0.091)
        porous   : (0 0 0)

forces forces_dyfuzor write:
    sum of forces:
        pressure : (-3.55 -1.24 -92.6)
        viscous  : (-0.161 -0.0176 0.0114)
        porous   : (0 0 0)
    sum of moments:
        pressure : (-26.9 -81.9 2.77)
        viscous  : (0.000814 0.0395 0.0689)
        porous   : (0 0 0)

Time = 24

smoothSolver:  Solving for Ux, Initial residual = 0.00483, Final residual = 0.000465, No Iterations 9
smoothSolver:  Solving for Uy, Initial residual = 0.0438, Final residual = 0.00434, No Iterations 8
smoothSolver:  Solving for Uz, Initial residual = 0.0045, Final residual = 0.000364, No Iterations 9
GAMG:  Solving for p, Initial residual = 0.0156, Final residual = 0.000153, No Iterations 4
time step continuity errors : sum local = 0.000919, global = 6.31e-06, cumulative = 4.89e-05
smoothSolver:  Solving for omega, Initial residual = 1.4e-05, Final residual = 7.42e-07, No Iterations 4
smoothSolver:  Solving for k, Initial residual = 0.00471, Final residual = 0.000328, No Iterations 3
bounding k, min: -0.000904 max: 294 average: 0.00501
ExecutionTime = 315 s  ClockTime = 319 s

forceCoeffs forceCoeffs1 write:
    Cm    = -2.76
    Cd    = -1.26
    Cl    = -3.15
    Cl(f) = -4.33
    Cl(r) = 1.18

forces forces_others write:
    sum of forces:
        pressure : (-31.3 9.76 38.1)
        viscous  : (-0.307 -0.0332 -1.52)
        porous   : (0 0 0)
    sum of moments:
        pressure : (7.06 34.9 -0.988)
        viscous  : (-0.869 -2.5 0.164)
        porous   : (0 0 0)

forces forces_ns_rear_wing write:
    sum of forces:
        pressure : (-42.6 -21 -116)
        viscous  : (-0.237 0.000153 0.114)
        porous   : (0 0 0)
    sum of moments:
        pressure : (-20.9 -220 39.7)
        viscous  : (0.0274 0.0599 0.0728)
        porous   : (0 0 0)

forces forces_mono write:
    sum of forces:
        pressure : (-12.2 22.8 -5.54)
        viscous  : (-0.0875 0.00468 0.00505)
        porous   : (0 0 0)
    sum of moments:
        pressure : (-2.01 -3.62 -6.99)
        viscous  : (0.00159 -0.00747 0.0216)
        porous   : (0 0 0)

forces forces_ns_front_wing write:
    sum of forces:
        pressure : (-19.2 -0.744 -99.3)
        viscous  : (-0.213 0.00388 0.0524)
        porous   : (0 0 0)
    sum of moments:
        pressure : (-34.7 63.6 8.76)
        viscous  : (0.0232 0.00117 0.0912)
        porous   : (0 0 0)

forces forces_dyfuzor write:
    sum of forces:
        pressure : (-3.55 -1.29 -92.5)
        viscous  : (-0.161 -0.018 0.0115)
        porous   : (0 0 0)
    sum of moments:
        pressure : (-27 -81.9 2.82)
        viscous  : (0.000763 0.0396 0.0693)
        porous   : (0 0 0)

Time = 25

smoothSolver:  Solving for Ux, Initial residual = 0.00469, Final residual = 0.000459, No Iterations 9
smoothSolver:  Solving for Uy, Initial residual = 0.0423, Final residual = 0.00347, No Iterations 9
smoothSolver:  Solving for Uz, Initial residual = 0.00436, Final residual = 0.000363, No Iterations 9
GAMG:  Solving for p, Initial residual = 0.0156, Final residual = 0.0001, No Iterations 5
time step continuity errors : sum local = 0.000606, global = 4.69e-06, cumulative = 5.36e-05
smoothSolver:  Solving for omega, Initial residual = 1.39e-05, Final residual = 7.39e-07, No Iterations 4
smoothSolver:  Solving for k, Initial residual = 0.00438, Final residual = 0.000291, No Iterations 3
bounding k, min: -0.0376 max: 298 average: 0.00681
ExecutionTime = 327 s  ClockTime = 332 s

forceCoeffs forceCoeffs1 write:
    Cm    = -2.77
    Cd    = -1.25
    Cl    = -3.16
    Cl(f) = -4.36
    Cl(r) = 1.19

forces forces_others write:
    sum of forces:
        pressure : (-30.3 8.64 38.3)
        viscous  : (-0.296 -0.035 -1.58)
        porous   : (0 0 0)
    sum of moments:
        pressure : (7.21 34.5 -0.441)
        viscous  : (-0.908 -2.61 0.161)
        porous   : (0 0 0)

forces forces_ns_rear_wing write:
    sum of forces:
        pressure : (-43.2 -20.8 -117)
        viscous  : (-0.238 0.000593 0.114)
        porous   : (0 0 0)
    sum of moments:
        pressure : (-21.4 -222 39.8)
        viscous  : (0.0272 0.0585 0.0724)
        porous   : (0 0 0)

forces forces_mono write:
    sum of forces:
        pressure : (-11.9 22.7 -5.36)
        viscous  : (-0.0871 0.00482 0.00519)
        porous   : (0 0 0)
    sum of moments:
        pressure : (-2.03 -3.53 -7.04)
        viscous  : (0.00169 -0.00729 0.0214)
        porous   : (0 0 0)

forces forces_ns_front_wing write:
    sum of forces:
        pressure : (-19.2 -0.682 -100)
        viscous  : (-0.214 0.00389 0.0523)
        porous   : (0 0 0)
    sum of moments:
        pressure : (-35 64.2 8.83)
        viscous  : (0.0232 0.00131 0.0915)
        porous   : (0 0 0)

forces forces_dyfuzor write:
    sum of forces:
        pressure : (-3.55 -1.34 -91.9)
        viscous  : (-0.161 -0.0185 0.0116)
        porous   : (0 0 0)
    sum of moments:
        pressure : (-27 -81.5 2.89)
        viscous  : (0.000714 0.0397 0.0696)
        porous   : (0 0 0)

Time = 26

smoothSolver:  Solving for Ux, Initial residual = 0.00473, Final residual = 0.000458, No Iterations 9
smoothSolver:  Solving for Uy, Initial residual = 0.0431, Final residual = 0.00346, No Iterations 9
smoothSolver:  Solving for Uz, Initial residual = 0.00447, Final residual = 0.000366, No Iterations 9
GAMG:  Solving for p, Initial residual = 0.0158, Final residual = 0.000157, No Iterations 4
time step continuity errors : sum local = 0.000959, global = 5.67e-06, cumulative = 5.92e-05
smoothSolver:  Solving for omega, Initial residual = 1.4e-05, Final residual = 7.36e-07, No Iterations 4
smoothSolver:  Solving for k, Initial residual = 0.00413, Final residual = 0.000275, No Iterations 3
bounding k, min: -0.0248 max: 300 average: 0.00906
ExecutionTime = 340 s  ClockTime = 344 s

forceCoeffs forceCoeffs1 write:
    Cm    = -2.79
    Cd    = -1.24
    Cl    = -3.17
    Cl(f) = -4.38
    Cl(r) = 1.2

forces forces_others write:
    sum of forces:
        pressure : (-29.6 7.99 38.2)
        viscous  : (-0.284 -0.0373 -1.67)
        porous   : (0 0 0)
    sum of moments:
        pressure : (7.18 34.1 -0.115)
        viscous  : (-0.958 -2.75 0.159)
        porous   : (0 0 0)

forces forces_ns_rear_wing write:
    sum of forces:
        pressure : (-43.5 -20.3 -118)
        viscous  : (-0.24 0.000961 0.113)
        porous   : (0 0 0)
    sum of moments:
        pressure : (-21.8 -224 39.5)
        viscous  : (0.027 0.0576 0.0722)
        porous   : (0 0 0)

forces forces_mono write:
    sum of forces:
        pressure : (-11.8 22.6 -5.18)
        viscous  : (-0.0866 0.00493 0.00532)
        porous   : (0 0 0)
    sum of moments:
        pressure : (-2.03 -3.48 -7.07)
        viscous  : (0.00179 -0.00711 0.0213)
        porous   : (0 0 0)

forces forces_ns_front_wing write:
    sum of forces:
        pressure : (-19.2 -0.651 -101)
        viscous  : (-0.214 0.0039 0.0522)
        porous   : (0 0 0)
    sum of moments:
        pressure : (-35.1 64.7 8.85)
        viscous  : (0.0232 0.00144 0.0917)
        porous   : (0 0 0)

forces forces_dyfuzor write:
    sum of forces:
        pressure : (-3.55 -1.38 -91.4)
        viscous  : (-0.161 -0.0189 0.0117)
        porous   : (0 0 0)
    sum of moments:
        pressure : (-26.9 -81.1 2.94)
        viscous  : (0.000661 0.0398 0.0699)
        porous   : (0 0 0)

Time = 27

smoothSolver:  Solving for Ux, Initial residual = 0.00464, Final residual = 0.000454, No Iterations 9
smoothSolver:  Solving for Uy, Initial residual = 0.0417, Final residual = 0.00344, No Iterations 9
smoothSolver:  Solving for Uz, Initial residual = 0.00437, Final residual = 0.000365, No Iterations 9
GAMG:  Solving for p, Initial residual = 0.0158, Final residual = 9.71e-05, No Iterations 5
time step continuity errors : sum local = 0.000596, global = 4.21e-06, cumulative = 6.34e-05
smoothSolver:  Solving for omega, Initial residual = 1.41e-05, Final residual = 7.34e-07, No Iterations 4
smoothSolver:  Solving for k, Initial residual = 0.00415, Final residual = 0.000285, No Iterations 3
bounding k, min: -0.0123 max: 301 average: 0.0119
ExecutionTime = 352 s  ClockTime = 357 s

forceCoeffs forceCoeffs1 write:
    Cm    = -2.8
    Cd    = -1.23
    Cl    = -3.18
    Cl(f) = -4.38
    Cl(r) = 1.21

forces forces_others write:
    sum of forces:
        pressure : (-28.7 7.48 38.2)
        viscous  : (-0.273 -0.0407 -1.78)
        porous   : (0 0 0)
    sum of moments:
        pressure : (7.25 33.6 0.152)
        viscous  : (-1.02 -2.93 0.158)
        porous   : (0 0 0)

forces forces_ns_rear_wing write:
    sum of forces:
        pressure : (-44 -19.9 -119)
        viscous  : (-0.241 0.00124 0.114)
        porous   : (0 0 0)
    sum of moments:
        pressure : (-22.4 -226 39.3)
        viscous  : (0.027 0.0572 0.0721)
        porous   : (0 0 0)

forces forces_mono write:
    sum of forces:
        pressure : (-11.6 22.2 -4.75)
        viscous  : (-0.0861 0.00503 0.00545)
        porous   : (0 0 0)
    sum of moments:
        pressure : (-1.99 -3.39 -7.17)
        viscous  : (0.00189 -0.0069 0.0212)
        porous   : (0 0 0)

forces forces_ns_front_wing write:
    sum of forces:
        pressure : (-19.1 -0.564 -102)
        viscous  : (-0.215 0.0039 0.0522)
        porous   : (0 0 0)
    sum of moments:
        pressure : (-35.4 65.2 8.88)
        viscous  : (0.0233 0.00156 0.092)
        porous   : (0 0 0)

forces forces_dyfuzor write:
    sum of forces:
        pressure : (-3.56 -1.44 -90.3)
        viscous  : (-0.161 -0.0193 0.0117)
        porous   : (0 0 0)
    sum of moments:
        pressure : (-26.8 -80.3 3)
        viscous  : (0.000626 0.0399 0.0702)
        porous   : (0 0 0)

Time = 28

smoothSolver:  Solving for Ux, Initial residual = 0.00469, Final residual = 0.000455, No Iterations 9
smoothSolver:  Solving for Uy, Initial residual = 0.0426, Final residual = 0.00346, No Iterations 9
smoothSolver:  Solving for Uz, Initial residual = 0.00446, Final residual = 0.000369, No Iterations 9
GAMG:  Solving for p, Initial residual = 0.016, Final residual = 0.000158, No Iterations 4
time step continuity errors : sum local = 0.000971, global = 5.11e-06, cumulative = 6.85e-05
smoothSolver:  Solving for omega, Initial residual = 1.44e-05, Final residual = 7.36e-07, No Iterations 4
smoothSolver:  Solving for k, Initial residual = 0.0044, Final residual = 0.000299, No Iterations 3
bounding k, min: -0.028 max: 301 average: 0.0156
ExecutionTime = 364 s  ClockTime = 369 s

forceCoeffs forceCoeffs1 write:
    Cm    = -2.8
    Cd    = -1.22
    Cl    = -3.18
    Cl(f) = -4.39
    Cl(r) = 1.21

forces forces_others write:
    sum of forces:
        pressure : (-28.2 7.4 38.3)
        viscous  : (-0.261 -0.0441 -1.93)
        porous   : (0 0 0)
    sum of moments:
        pressure : (7.29 33.4 0.133)
        viscous  : (-1.11 -3.16 0.156)
        porous   : (0 0 0)

forces forces_ns_rear_wing write:
    sum of forces:
        pressure : (-44.2 -19.5 -120)
        viscous  : (-0.243 0.00152 0.114)
        porous   : (0 0 0)
    sum of moments:
        pressure : (-22.8 -228 39.1)
        viscous  : (0.0269 0.0575 0.072)
        porous   : (0 0 0)

forces forces_mono write:
    sum of forces:
        pressure : (-11.4 22 -4.52)
        viscous  : (-0.0856 0.00509 0.00563)
        porous   : (0 0 0)
    sum of moments:
        pressure : (-1.97 -3.32 -7.25)
        viscous  : (0.002 -0.00666 0.0211)
        porous   : (0 0 0)

forces forces_ns_front_wing write:
    sum of forces:
        pressure : (-19 -0.525 -102)
        viscous  : (-0.215 0.00391 0.0522)
        porous   : (0 0 0)
    sum of moments:
        pressure : (-35.5 65.6 8.89)
        viscous  : (0.0233 0.0017 0.0922)
        porous   : (0 0 0)

forces forces_dyfuzor write:
    sum of forces:
        pressure : (-3.56 -1.47 -89.8)
        viscous  : (-0.162 -0.0197 0.0118)
        porous   : (0 0 0)
    sum of moments:
        pressure : (-26.7 -80 3.04)
        viscous  : (0.000589 0.04 0.0705)
        porous   : (0 0 0)

Time = 29

smoothSolver:  Solving for Ux, Initial residual = 0.00461, Final residual = 0.000454, No Iterations 9
smoothSolver:  Solving for Uy, Initial residual = 0.0415, Final residual = 0.00346, No Iterations 9
smoothSolver:  Solving for Uz, Initial residual = 0.00435, Final residual = 0.00037, No Iterations 9
GAMG:  Solving for p, Initial residual = 0.016, Final residual = 9.8e-05, No Iterations 5
time step continuity errors : sum local = 0.0006, global = 3.88e-06, cumulative = 7.24e-05
smoothSolver:  Solving for omega, Initial residual = 1.47e-05, Final residual = 7.41e-07, No Iterations 4
smoothSolver:  Solving for k, Initial residual = 0.00462, Final residual = 0.000305, No Iterations 3
bounding k, min: -0.0125 max: 302 average: 0.0204
ExecutionTime = 377 s  ClockTime = 382 s

forceCoeffs forceCoeffs1 write:
    Cm    = -2.8
    Cd    = -1.21
    Cl    = -3.18
    Cl(f) = -4.39
    Cl(r) = 1.22

forces forces_others write:
    sum of forces:
        pressure : (-27.2 7.61 38.6)
        viscous  : (-0.25 -0.0473 -2.11)
        porous   : (0 0 0)
    sum of moments:
        pressure : (7.42 33.1 -0.0613)
        viscous  : (-1.22 -3.46 0.155)
        porous   : (0 0 0)

forces forces_ns_rear_wing write:
    sum of forces:
        pressure : (-44.5 -19.1 -121)
        viscous  : (-0.243 0.00177 0.115)
        porous   : (0 0 0)
    sum of moments:
        pressure : (-23.3 -229 39.1)
        viscous  : (0.027 0.0587 0.0717)
        porous   : (0 0 0)

forces forces_mono write:
    sum of forces:
        pressure : (-11.3 21.5 -4.06)
        viscous  : (-0.0851 0.00515 0.00576)
        porous   : (0 0 0)
    sum of moments:
        pressure : (-1.91 -3.22 -7.41)
        viscous  : (0.0021 -0.00646 0.0211)
        porous   : (0 0 0)

forces forces_ns_front_wing write:
    sum of forces:
        pressure : (-19 -0.423 -103)
        viscous  : (-0.215 0.00393 0.0523)
        porous   : (0 0 0)
    sum of moments:
        pressure : (-35.7 66.1 8.92)
        viscous  : (0.0233 0.00184 0.0924)
        porous   : (0 0 0)

forces forces_dyfuzor write:
    sum of forces:
        pressure : (-3.56 -1.52 -88.6)
        viscous  : (-0.162 -0.02 0.0119)
        porous   : (0 0 0)
    sum of moments:
        pressure : (-26.6 -79.1 3.09)
        viscous  : (0.000567 0.0401 0.0708)
        porous   : (0 0 0)

Time = 30

smoothSolver:  Solving for Ux, Initial residual = 0.00467, Final residual = 0.000456, No Iterations 9
smoothSolver:  Solving for Uy, Initial residual = 0.0426, Final residual = 0.0035, No Iterations 9
smoothSolver:  Solving for Uz, Initial residual = 0.00444, Final residual = 0.000374, No Iterations 9
GAMG:  Solving for p, Initial residual = 0.0163, Final residual = 0.000159, No Iterations 4
time step continuity errors : sum local = 0.000969, global = 4.84e-06, cumulative = 7.73e-05
smoothSolver:  Solving for omega, Initial residual = 1.5e-05, Final residual = 7.47e-07, No Iterations 4
smoothSolver:  Solving for k, Initial residual = 0.00462, Final residual = 0.000305, No Iterations 3
bounding k, min: -0.074 max: 302 average: 0.0263
ExecutionTime = 389 s  ClockTime = 395 s

forceCoeffs forceCoeffs1 write:
    Cm    = -2.81
    Cd    = -1.2
    Cl    = -3.18
    Cl(f) = -4.4
    Cl(r) = 1.22

forces forces_others write:
    sum of forces:
        pressure : (-26.8 7.86 38.8)
        viscous  : (-0.239 -0.0501 -2.32)
        porous   : (0 0 0)
    sum of moments:
        pressure : (7.48 32.9 -0.313)
        viscous  : (-1.34 -3.8 0.153)
        porous   : (0 0 0)

forces forces_ns_rear_wing write:
    sum of forces:
        pressure : (-44.6 -18.9 -121)
        viscous  : (-0.244 0.00209 0.115)
        porous   : (0 0 0)
    sum of moments:
        pressure : (-23.6 -230 39)
        viscous  : (0.0269 0.0601 0.0713)
        porous   : (0 0 0)

forces forces_mono write:
    sum of forces:
        pressure : (-11.1 21.3 -3.86)
        viscous  : (-0.0846 0.00506 0.00588)
        porous   : (0 0 0)
    sum of moments:
        pressure : (-1.88 -3.12 -7.48)
        viscous  : (0.00224 -0.00626 0.0211)
        porous   : (0 0 0)

forces forces_ns_front_wing write:
    sum of forces:
        pressure : (-18.9 -0.391 -103)
        viscous  : (-0.216 0.00395 0.0523)
        porous   : (0 0 0)
    sum of moments:
        pressure : (-35.9 66.4 8.92)
        viscous  : (0.0234 0.00197 0.0926)
        porous   : (0 0 0)

forces forces_dyfuzor write:
    sum of forces:
        pressure : (-3.55 -1.55 -88.2)
        viscous  : (-0.162 -0.0202 0.012)
        porous   : (0 0 0)
    sum of moments:
        pressure : (-26.5 -78.7 3.12)
        viscous  : (0.000536 0.0402 0.0711)
        porous   : (0 0 0)

Time = 31

smoothSolver:  Solving for Ux, Initial residual = 0.0046, Final residual = 0.000456, No Iterations 9
smoothSolver:  Solving for Uy, Initial residual = 0.0419, Final residual = 0.00354, No Iterations 9
smoothSolver:  Solving for Uz, Initial residual = 0.00434, Final residual = 0.000375, No Iterations 9
GAMG:  Solving for p, Initial residual = 0.0164, Final residual = 9.82e-05, No Iterations 5
time step continuity errors : sum local = 0.000594, global = 3.93e-06, cumulative = 8.12e-05
smoothSolver:  Solving for omega, Initial residual = 1.55e-05, Final residual = 7.54e-07, No Iterations 4
smoothSolver:  Solving for k, Initial residual = 0.00454, Final residual = 0.000303, No Iterations 3
bounding k, min: -0.0208 max: 303 average: 0.0334
ExecutionTime = 402 s  ClockTime = 407 s

forceCoeffs forceCoeffs1 write:
    Cm    = -2.8
    Cd    = -1.19
    Cl    = -3.17
    Cl(f) = -4.39
    Cl(r) = 1.22

forces forces_others write:
    sum of forces:
        pressure : (-26.2 8.24 39.4)
        viscous  : (-0.228 -0.0525 -2.56)
        porous   : (0 0 0)
    sum of moments:
        pressure : (7.72 32.8 -0.665)
        viscous  : (-1.48 -4.2 0.149)
        porous   : (0 0 0)

forces forces_ns_rear_wing write:
    sum of forces:
        pressure : (-44.6 -18.7 -122)
        viscous  : (-0.244 0.00242 0.115)
        porous   : (0 0 0)
    sum of moments:
        pressure : (-24 -231 39.1)
        viscous  : (0.0268 0.0615 0.0708)
        porous   : (0 0 0)

forces forces_mono write:
    sum of forces:
        pressure : (-10.9 21 -3.52)
        viscous  : (-0.0841 0.00499 0.006)
        porous   : (0 0 0)
    sum of moments:
        pressure : (-1.83 -3.01 -7.61)
        viscous  : (0.00237 -0.00608 0.0212)
        porous   : (0 0 0)

forces forces_ns_front_wing write:
    sum of forces:
        pressure : (-18.8 -0.319 -104)
        viscous  : (-0.216 0.00397 0.0524)
        porous   : (0 0 0)
    sum of moments:
        pressure : (-36.1 66.9 8.94)
        viscous  : (0.0235 0.00209 0.0929)
        porous   : (0 0 0)

forces forces_dyfuzor write:
    sum of forces:
        pressure : (-3.52 -1.59 -87.2)
        viscous  : (-0.162 -0.0203 0.012)
        porous   : (0 0 0)
    sum of moments:
        pressure : (-26.4 -77.9 3.16)
        viscous  : (0.000527 0.0403 0.0713)
        porous   : (0 0 0)

Time = 32

smoothSolver:  Solving for Ux, Initial residual = 0.00465, Final residual = 0.000459, No Iterations 9
smoothSolver:  Solving for Uy, Initial residual = 0.0434, Final residual = 0.00362, No Iterations 9
smoothSolver:  Solving for Uz, Initial residual = 0.00444, Final residual = 0.000379, No Iterations 9
GAMG:  Solving for p, Initial residual = 0.0167, Final residual = 0.000163, No Iterations 4
time step continuity errors : sum local = 0.000979, global = 5e-06, cumulative = 8.62e-05
smoothSolver:  Solving for omega, Initial residual = 1.59e-05, Final residual = 1.59e-06, No Iterations 3
smoothSolver:  Solving for k, Initial residual = 0.00439, Final residual = 0.000291, No Iterations 3
bounding k, min: -0.00177 max: 308 average: 0.042
ExecutionTime = 414 s  ClockTime = 419 s

forceCoeffs forceCoeffs1 write:
    Cm    = -2.81
    Cd    = -1.19
    Cl    = -3.17
    Cl(f) = -4.39
    Cl(r) = 1.22

forces forces_others write:
    sum of forces:
        pressure : (-26 8.56 39.8)
        viscous  : (-0.216 -0.0559 -2.84)
        porous   : (0 0 0)
    sum of moments:
        pressure : (7.89 32.7 -1.02)
        viscous  : (-1.64 -4.65 0.148)
        porous   : (0 0 0)

forces forces_ns_rear_wing write:
    sum of forces:
        pressure : (-44.6 -18.4 -122)
        viscous  : (-0.243 0.00284 0.115)
        porous   : (0 0 0)
    sum of moments:
        pressure : (-24.3 -231 38.9)
        viscous  : (0.0265 0.0625 0.0701)
        porous   : (0 0 0)

forces forces_mono write:
    sum of forces:
        pressure : (-10.8 20.8 -3.4)
        viscous  : (-0.0838 0.00491 0.00621)
        porous   : (0 0 0)
    sum of moments:
        pressure : (-1.8 -2.91 -7.6)
        viscous  : (0.0025 -0.00592 0.0213)
        porous   : (0 0 0)

forces forces_ns_front_wing write:
    sum of forces:
        pressure : (-18.8 -0.316 -104)
        viscous  : (-0.217 0.00399 0.0524)
        porous   : (0 0 0)
    sum of moments:
        pressure : (-36.2 67.2 8.93)
        viscous  : (0.0235 0.00221 0.0931)
        porous   : (0 0 0)

forces forces_dyfuzor write:
    sum of forces:
        pressure : (-3.49 -1.62 -87)
        viscous  : (-0.162 -0.0204 0.0121)
        porous   : (0 0 0)
    sum of moments:
        pressure : (-26.5 -77.6 3.19)
        viscous  : (0.000545 0.0404 0.0714)
        porous   : (0 0 0)

Time = 33

smoothSolver:  Solving for Ux, Initial residual = 0.00457, Final residual = 0.000369, No Iterations 10
smoothSolver:  Solving for Uy, Initial residual = 0.0428, Final residual = 0.00367, No Iterations 9
smoothSolver:  Solving for Uz, Initial residual = 0.00433, Final residual = 0.000378, No Iterations 9
GAMG:  Solving for p, Initial residual = 0.0168, Final residual = 9.9e-05, No Iterations 5
time step continuity errors : sum local = 0.000594, global = 3.64e-06, cumulative = 8.98e-05
smoothSolver:  Solving for omega, Initial residual = 1.64e-05, Final residual = 1.61e-06, No Iterations 3
smoothSolver:  Solving for k, Initial residual = 0.00411, Final residual = 0.000277, No Iterations 3
[...]
        viscous  : (-14.4 -41.6 0.824)
        porous   : (0 0 0)

forces forces_ns_rear_wing write:
    sum of forces:
        pressure : (-39.2 6.55 -88.7)
        viscous  : (-0.898 0.0102 0.221)
        porous   : (0 0 0)
    sum of moments:
        pressure : (-28.4 -172 -3.07)
        viscous  : (0.0369 -0.127 0.271)
        porous   : (0 0 0)

forces forces_mono write:
    sum of forces:
        pressure : (-8.09 9.37 0.0977)
        viscous  : (-0.17 0.0129 0.0249)
        porous   : (0 0 0)
    sum of moments:
        pressure : (-0.708 -2.02 -5.08)
        viscous  : (0.00864 -0.00942 0.0374)
        porous   : (0 0 0)

forces forces_ns_front_wing write:
    sum of forces:
        pressure : (-17.8 0.915 -110)
        viscous  : (-0.338 0.00322 0.102)
        porous   : (0 0 0)
    sum of moments:
        pressure : (-36.5 72.2 8.87)
        viscous  : (0.0503 -0.00699 0.164)
        porous   : (0 0 0)

forces forces_dyfuzor write:
    sum of forces:
        pressure : (-3.47 -2.09 -95.7)
        viscous  : (-0.716 -0.0544 0.0518)
        porous   : (0 0 0)
    sum of moments:
        pressure : (-29.7 -85.1 3.78)
        viscous  : (0.00743 0.178 0.293)
        porous   : (0 0 0)

Time = 353

smoothSolver:  Solving for Ux, Initial residual = 0.00133, Final residual = 0.000109, No Iterations 10
smoothSolver:  Solving for Uy, Initial residual = 0.00966, Final residual = 0.00088, No Iterations 9
smoothSolver:  Solving for Uz, Initial residual = 0.00159, Final residual = 0.000149, No Iterations 9
GAMG:  Solving for p, Initial residual = 0.0046, Final residual = 3.63e-05, No Iterations 4
time step continuity errors : sum local = 0.000265, global = -2.76e-06, cumulative = 0.000338
smoothSolver:  Solving for omega, Initial residual = 6.6e-06, Final residual = 6.31e-07, No Iterations 3
smoothSolver:  Solving for k, Initial residual = 0.00113, Final residual = 7.1e-05, No Iterations 4
bounding k, min: -0.00112 max: 353 average: 2.55
ExecutionTime = 4.36e+03 s  ClockTime = 4422 s

forceCoeffs forceCoeffs1 write:
    Cm    = -2.75
    Cd    = -1.27
    Cl    = -3.23
    Cl(f) = -4.37
    Cl(r) = 1.13

forces forces_others write:
    sum of forces:
        pressure : (-38.6 26 40.8)
        viscous  : (-1.1 -0.257 -25.6)
        porous   : (0 0 0)
    sum of moments:
        pressure : (12 33 -17.4)
        viscous  : (-14.4 -41.6 0.819)
        porous   : (0 0 0)

forces forces_ns_rear_wing write:
    sum of forces:
        pressure : (-39.2 6.48 -88.8)
        viscous  : (-0.897 0.01 0.221)
        porous   : (0 0 0)
    sum of moments:
        pressure : (-28.4 -173 -2.92)
        viscous  : (0.0373 -0.125 0.271)
        porous   : (0 0 0)

forces forces_mono write:
    sum of forces:
        pressure : (-8.07 9.41 0.0872)
        viscous  : (-0.17 0.013 0.0247)
        porous   : (0 0 0)
    sum of moments:
        pressure : (-0.71 -2.02 -5.09)
        viscous  : (0.00859 -0.0095 0.0371)
        porous   : (0 0 0)

forces forces_ns_front_wing write:
    sum of forces:
        pressure : (-17.7 0.896 -110)
        viscous  : (-0.338 0.00325 0.102)
        porous   : (0 0 0)
    sum of moments:
        pressure : (-36.5 72.2 8.85)
        viscous  : (0.0503 -0.007 0.164)
        porous   : (0 0 0)

forces forces_dyfuzor write:
    sum of forces:
        pressure : (-3.46 -2.09 -95.6)
        viscous  : (-0.717 -0.0546 0.0519)
        porous   : (0 0 0)
    sum of moments:
        pressure : (-29.6 -85 3.78)
        viscous  : (0.00743 0.178 0.294)
        porous   : (0 0 0)

Time = 354

smoothSolver:  Solving for Ux, Initial residual = 0.00133, Final residual = 0.000109, No Iterations 10
smoothSolver:  Solving for Uy, Initial residual = 0.00966, Final residual = 0.000881, No Iterations 9
smoothSolver:  Solving for Uz, Initial residual = 0.00159, Final residual = 0.000149, No Iterations 9
GAMG:  Solving for p, Initial residual = 0.00459, Final residual = 3.67e-05, No Iterations 4
time step continuity errors : sum local = 0.000268, global = -4.05e-06, cumulative = 0.000334
smoothSolver:  Solving for omega, Initial residual = 6.6e-06, Final residual = 6.31e-07, No Iterations 3
smoothSolver:  Solving for k, Initial residual = 0.00113, Final residual = 7.1e-05, No Iterations 4
bounding k, min: -0.001 max: 354 average: 2.55
ExecutionTime = 4.38e+03 s  ClockTime = 4434 s

forceCoeffs forceCoeffs1 write:
    Cm    = -2.75
    Cd    = -1.27
    Cl    = -3.23
    Cl(f) = -4.37
    Cl(r) = 1.14

forces forces_others write:
    sum of forces:
        pressure : (-38.7 26 40.7)
        viscous  : (-1.11 -0.254 -25.6)
        porous   : (0 0 0)
    sum of moments:
        pressure : (12 32.8 -17.4)
        viscous  : (-14.4 -41.6 0.814)
        porous   : (0 0 0)

forces forces_ns_rear_wing write:
    sum of forces:
        pressure : (-39.2 6.4 -88.9)
        viscous  : (-0.897 0.00983 0.222)
        porous   : (0 0 0)
    sum of moments:
        pressure : (-28.4 -173 -2.74)
        viscous  : (0.0376 -0.124 0.272)
        porous   : (0 0 0)

forces forces_mono write:
    sum of forces:
        pressure : (-8.03 9.44 0.0867)
        viscous  : (-0.169 0.0132 0.0245)
        porous   : (0 0 0)
    sum of moments:
        pressure : (-0.711 -2.01 -5.11)
        viscous  : (0.00852 -0.00961 0.0369)
        porous   : (0 0 0)

forces forces_ns_front_wing write:
    sum of forces:
        pressure : (-17.7 0.878 -110)
        viscous  : (-0.338 0.00327 0.102)
        porous   : (0 0 0)
    sum of moments:
        pressure : (-36.5 72.2 8.84)
        viscous  : (0.0503 -0.007 0.164)
        porous   : (0 0 0)

forces forces_dyfuzor write:
    sum of forces:
        pressure : (-3.46 -2.08 -95.4)
        viscous  : (-0.717 -0.0548 0.052)
        porous   : (0 0 0)
    sum of moments:
        pressure : (-29.6 -84.8 3.77)
        viscous  : (0.00742 0.178 0.294)
        porous   : (0 0 0)

Time = 355

smoothSolver:  Solving for Ux, Initial residual = 0.00133, Final residual = 0.000109, No Iterations 10
smoothSolver:  Solving for Uy, Initial residual = 0.00965, Final residual = 0.000883, No Iterations 9
smoothSolver:  Solving for Uz, Initial residual = 0.00159, Final residual = 0.000149, No Iterations 9
GAMG:  Solving for p, Initial residual = 0.00459, Final residual = 3.71e-05, No Iterations 4
time step continuity errors : sum local = 0.00027, global = -5.19e-06, cumulative = 0.000329
smoothSolver:  Solving for omega, Initial residual = 6.6e-06, Final residual = 6.3e-07, No Iterations 3
smoothSolver:  Solving for k, Initial residual = 0.00113, Final residual = 7.09e-05, No Iterations 4
bounding k, min: -0.00125 max: 354 average: 2.55
ExecutionTime = 4.39e+03 s  ClockTime = 4447 s

forceCoeffs forceCoeffs1 write:
    Cm    = -2.75
    Cd    = -1.27
    Cl    = -3.23
    Cl(f) = -4.37
    Cl(r) = 1.14

forces forces_others write:
    sum of forces:
        pressure : (-38.8 26 40.7)
        viscous  : (-1.11 -0.251 -25.6)
        porous   : (0 0 0)
    sum of moments:
        pressure : (11.9 32.7 -17.4)
        viscous  : (-14.4 -41.6 0.81)
        porous   : (0 0 0)

forces forces_ns_rear_wing write:
    sum of forces:
        pressure : (-39.3 6.31 -89)
        viscous  : (-0.897 0.00962 0.222)
        porous   : (0 0 0)
    sum of moments:
        pressure : (-28.4 -173 -2.55)
        viscous  : (0.0378 -0.124 0.272)
        porous   : (0 0 0)

forces forces_mono write:
    sum of forces:
        pressure : (-7.99 9.46 0.0953)
        viscous  : (-0.169 0.0134 0.0243)
        porous   : (0 0 0)
    sum of moments:
        pressure : (-0.711 -2 -5.12)
        viscous  : (0.00847 -0.00971 0.0367)
        porous   : (0 0 0)

forces forces_ns_front_wing write:
    sum of forces:
        pressure : (-17.7 0.863 -110)
        viscous  : (-0.338 0.0033 0.102)
        porous   : (0 0 0)
    sum of moments:
        pressure : (-36.5 72.2 8.83)
        viscous  : (0.0503 -0.007 0.164)
        porous   : (0 0 0)

forces forces_dyfuzor write:
    sum of forces:
        pressure : (-3.45 -2.07 -95.3)
        viscous  : (-0.717 -0.0551 0.0521)
        porous   : (0 0 0)
    sum of moments:
        pressure : (-29.5 -84.7 3.76)
        viscous  : (0.00742 0.178 0.294)
        porous   : (0 0 0)

Time = 356

smoothSolver:  Solving for Ux, Initial residual = 0.00133, Final residual = 0.000109, No Iterations 10
smoothSolver:  Solving for Uy, Initial residual = 0.00965, Final residual = 0.000884, No Iterations 9
smoothSolver:  Solving for Uz, Initial residual = 0.00159, Final residual = 0.000149, No Iterations 9
GAMG:  Solving for p, Initial residual = 0.00458, Final residual = 3.74e-05, No Iterations 4
time step continuity errors : sum local = 0.000273, global = -6.21e-06, cumulative = 0.000323
smoothSolver:  Solving for omega, Initial residual = 6.61e-06, Final residual = 6.29e-07, No Iterations 3
smoothSolver:  Solving for k, Initial residual = 0.00113, Final residual = 7.08e-05, No Iterations 4
bounding k, min: -0.00122 max: 355 average: 2.55
ExecutionTime = 4.4e+03 s  ClockTime = 4460 s

forceCoeffs forceCoeffs1 write:
    Cm    = -2.76
    Cd    = -1.27
    Cl    = -3.24
    Cl(f) = -4.37
    Cl(r) = 1.14

forces forces_others write:
    sum of forces:
        pressure : (-38.8 26 40.6)
        viscous  : (-1.11 -0.248 -25.6)
        porous   : (0 0 0)
    sum of moments:
        pressure : (11.8 32.4 -17.4)
        viscous  : (-14.4 -41.7 0.806)
        porous   : (0 0 0)

forces forces_ns_rear_wing write:
    sum of forces:
        pressure : (-39.3 6.22 -89.1)
        viscous  : (-0.897 0.00943 0.222)
        porous   : (0 0 0)
    sum of moments:
        pressure : (-28.3 -173 -2.34)
        viscous  : (0.0379 -0.124 0.272)
        porous   : (0 0 0)

forces forces_mono write:
    sum of forces:
        pressure : (-7.95 9.47 0.111)
        viscous  : (-0.169 0.0136 0.0242)
        porous   : (0 0 0)
    sum of moments:
        pressure : (-0.71 -1.99 -5.12)
        viscous  : (0.00841 -0.00983 0.0364)
        porous   : (0 0 0)

forces forces_ns_front_wing write:
    sum of forces:
        pressure : (-17.7 0.851 -110)
        viscous  : (-0.338 0.00333 0.102)
        porous   : (0 0 0)
    sum of moments:
        pressure : (-36.5 72.3 8.82)
        viscous  : (0.0503 -0.007 0.164)
        porous   : (0 0 0)

forces forces_dyfuzor write:
    sum of forces:
        pressure : (-3.44 -2.06 -95.2)
        viscous  : (-0.717 -0.0553 0.0522)
        porous   : (0 0 0)
    sum of moments:
        pressure : (-29.5 -84.5 3.74)
        viscous  : (0.0074 0.178 0.295)
        porous   : (0 0 0)

Time = 357

smoothSolver:  Solving for Ux, Initial residual = 0.00133, Final residual = 0.000109, No Iterations 10
smoothSolver:  Solving for Uy, Initial residual = 0.00965, Final residual = 0.000885, No Iterations 9
smoothSolver:  Solving for Uz, Initial residual = 0.00159, Final residual = 0.00015, No Iterations 9
GAMG:  Solving for p, Initial residual = 0.00458, Final residual = 3.76e-05, No Iterations 4
time step continuity errors : sum local = 0.000274, global = -7.15e-06, cumulative = 0.000316
smoothSolver:  Solving for omega, Initial residual = 6.61e-06, Final residual = 6.29e-07, No Iterations 3
smoothSolver:  Solving for k, Initial residual = 0.00113, Final residual = 7.08e-05, No Iterations 4
bounding k, min: -0.00102 max: 355 average: 2.56
ExecutionTime = 4.41e+03 s  ClockTime = 4472 s

forceCoeffs forceCoeffs1 write:
    Cm    = -2.76
    Cd    = -1.27
    Cl    = -3.24
    Cl(f) = -4.38
    Cl(r) = 1.14

forces forces_others write:
    sum of forces:
        pressure : (-38.9 26 40.5)
        viscous  : (-1.11 -0.245 -25.6)
        porous   : (0 0 0)
    sum of moments:
        pressure : (11.8 32.2 -17.3)
        viscous  : (-14.4 -41.7 0.803)
        porous   : (0 0 0)

forces forces_ns_rear_wing write:
    sum of forces:
        pressure : (-39.3 6.12 -89.1)
        viscous  : (-0.897 0.00925 0.221)
        porous   : (0 0 0)
    sum of moments:
        pressure : (-28.3 -173 -2.12)
        viscous  : (0.0379 -0.124 0.273)
        porous   : (0 0 0)

forces forces_mono write:
    sum of forces:
        pressure : (-7.9 9.48 0.132)
        viscous  : (-0.169 0.0138 0.024)
        porous   : (0 0 0)
    sum of moments:
        pressure : (-0.709 -1.98 -5.13)
        viscous  : (0.00836 -0.00993 0.0362)
        porous   : (0 0 0)

forces forces_ns_front_wing write:
    sum of forces:
        pressure : (-17.7 0.844 -110)
        viscous  : (-0.338 0.00334 0.102)
        porous   : (0 0 0)
    sum of moments:
        pressure : (-36.5 72.3 8.82)
        viscous  : (0.0502 -0.00699 0.164)
        porous   : (0 0 0)

forces forces_dyfuzor write:
    sum of forces:
        pressure : (-3.42 -2.05 -95.1)
        viscous  : (-0.717 -0.0556 0.0523)
        porous   : (0 0 0)
    sum of moments:
        pressure : (-29.4 -84.4 3.72)
        viscous  : (0.00739 0.178 0.295)
        porous   : (0 0 0)

Time = 358

smoothSolver:  Solving for Ux, Initial residual = 0.00133, Final residual = 0.000109, No Iterations 10
smoothSolver:  Solving for Uy, Initial residual = 0.00964, Final residual = 0.000886, No Iterations 9
smoothSolver:  Solving for Uz, Initial residual = 0.00159, Final residual = 0.00015, No Iterations 9
GAMG:  Solving for p, Initial residual = 0.00457, Final residual = 3.79e-05, No Iterations 4
time step continuity errors : sum local = 0.000276, global = -7.97e-06, cumulative = 0.000308
smoothSolver:  Solving for omega, Initial residual = 6.62e-06, Final residual = 6.29e-07, No Iterations 3
smoothSolver:  Solving for k, Initial residual = 0.00113, Final residual = 7.07e-05, No Iterations 4
bounding k, min: -0.00124 max: 355 average: 2.56
ExecutionTime = 4.42e+03 s  ClockTime = 4484 s

forceCoeffs forceCoeffs1 write:
    Cm    = -2.76
    Cd    = -1.27
    Cl    = -3.24
    Cl(f) = -4.38
    Cl(r) = 1.14

forces forces_others write:
    sum of forces:
        pressure : (-38.9 26 40.4)
        viscous  : (-1.11 -0.243 -25.6)
        porous   : (0 0 0)
    sum of moments:
        pressure : (11.7 32 -17.2)
        viscous  : (-14.4 -41.7 0.8)
        porous   : (0 0 0)

forces forces_ns_rear_wing write:
    sum of forces:
        pressure : (-39.3 6.02 -89.2)
        viscous  : (-0.897 0.00909 0.221)
        porous   : (0 0 0)
    sum of moments:
        pressure : (-28.2 -173 -1.9)
        viscous  : (0.0378 -0.125 0.273)
        porous   : (0 0 0)

forces forces_mono write:
    sum of forces:
        pressure : (-7.86 9.47 0.156)
        viscous  : (-0.169 0.014 0.0238)
        porous   : (0 0 0)
    sum of moments:
        pressure : (-0.708 -1.97 -5.13)
        viscous  : (0.00831 -0.01 0.0361)
        porous   : (0 0 0)

forces forces_ns_front_wing write:
    sum of forces:
        pressure : (-17.7 0.841 -110)
        viscous  : (-0.338 0.00336 0.102)
        porous   : (0 0 0)
    sum of moments:
        pressure : (-36.5 72.3 8.82)
        viscous  : (0.0502 -0.00698 0.164)
        porous   : (0 0 0)

forces forces_dyfuzor write:
    sum of forces:
        pressure : (-3.41 -2.03 -95)
        viscous  : (-0.717 -0.0558 0.0523)
        porous   : (0 0 0)
    sum of moments:
        pressure : (-29.4 -84.2 3.7)
        viscous  : (0.00737 0.178 0.295)
        porous   : (0 0 0)

Time = 359

smoothSolver:  Solving for Ux, Initial residual = 0.00133, Final residual = 0.000108, No Iterations 10
smoothSolver:  Solving for Uy, Initial residual = 0.00964, Final residual = 0.000887, No Iterations 9
smoothSolver:  Solving for Uz, Initial residual = 0.00159, Final residual = 0.00015, No Iterations 9
GAMG:  Solving for p, Initial residual = 0.00457, Final residual = 3.81e-05, No Iterations 4
time step continuity errors : sum local = 0.000278, global = -8.65e-06, cumulative = 0.000299
smoothSolver:  Solving for omega, Initial residual = 6.63e-06, Final residual = 6.3e-07, No Iterations 3
smoothSolver:  Solving for k, Initial residual = 0.00113, Final residual = 7.08e-05, No Iterations 4
bounding k, min: -0.00129 max: 355 average: 2.56
ExecutionTime = 4.44e+03 s  ClockTime = 4497 s

forceCoeffs forceCoeffs1 write:
    Cm    = -2.76
    Cd    = -1.27
    Cl    = -3.24
    Cl(f) = -4.38
    Cl(r) = 1.14

forces forces_others write:
    sum of forces:
        pressure : (-39 25.9 40.3)
        viscous  : (-1.12 -0.24 -25.6)
        porous   : (0 0 0)
    sum of moments:
        pressure : (11.6 31.8 -17.1)
        viscous  : (-14.5 -41.7 0.798)
        porous   : (0 0 0)

forces forces_ns_rear_wing write:
    sum of forces:
        pressure : (-39.3 5.92 -89.3)
        viscous  : (-0.896 0.00895 0.22)
        porous   : (0 0 0)
    sum of moments:
        pressure : (-28.2 -173 -1.69)
        viscous  : (0.0376 -0.125 0.273)
        porous   : (0 0 0)

forces forces_mono write:
    sum of forces:
        pressure : (-7.83 9.47 0.178)
        viscous  : (-0.168 0.0141 0.0237)
        porous   : (0 0 0)
    sum of moments:
        pressure : (-0.706 -1.95 -5.12)
        viscous  : (0.00828 -0.0101 0.0359)
        porous   : (0 0 0)

forces forces_ns_front_wing write:
    sum of forces:
        pressure : (-17.7 0.841 -110)
        viscous  : (-0.338 0.00337 0.102)
        porous   : (0 0 0)
    sum of moments:
        pressure : (-36.5 72.3 8.82)
        viscous  : (0.0502 -0.00697 0.164)
        porous   : (0 0 0)

forces forces_dyfuzor write:
    sum of forces:
        pressure : (-3.4 -2.02 -94.9)
        viscous  : (-0.717 -0.056 0.0524)
        porous   : (0 0 0)
    sum of moments:
        pressure : (-29.4 -84.1 3.68)
        viscous  : (0.00734 0.178 0.295)
        porous   : (0 0 0)

Time = 360

smoothSolver:  Solving for Ux, Initial residual = 0.00133, Final residual = 0.000108, No Iterations 10
smoothSolver:  Solving for Uy, Initial residual = 0.00963, Final residual = 0.000888, No Iterations 9
smoothSolver:  Solving for Uz, Initial residual = 0.00159, Final residual = 0.00015, No Iterations 9
GAMG:  Solving for p, Initial residual = 0.00457, Final residual = 3.83e-05, No Iterations 4
time step continuity errors : sum local = 0.000279, global = -9.13e-06, cumulative = 0.00029
smoothSolver:  Solving for omega, Initial residual = 6.63e-06, Final residual = 6.31e-07, No Iterations 3
smoothSolver:  Solving for k, Initial residual = 0.00113, Final residual = 7.08e-05, No Iterations 4
bounding k, min: -0.00103 max: 354 average: 2.56
ExecutionTime = 4.45e+03 s  ClockTime = 4509 s

forceCoeffs forceCoeffs1 write:
    Cm    = -2.76
    Cd    = -1.27
    Cl    = -3.24
    Cl(f) = -4.38
    Cl(r) = 1.14

forces forces_others write:
    sum of forces:
        pressure : (-39.1 25.9 40.2)
        viscous  : (-1.12 -0.238 -25.7)
        porous   : (0 0 0)
    sum of moments:
        pressure : (11.6 31.6 -16.9)
        viscous  : (-14.5 -41.7 0.796)
        porous   : (0 0 0)

forces forces_ns_rear_wing write:
    sum of forces:
        pressure : (-39.3 5.83 -89.3)
        viscous  : (-0.896 0.00886 0.219)
        porous   : (0 0 0)
    sum of moments:
        pressure : (-28.1 -173 -1.5)
        viscous  : (0.0374 -0.126 0.273)
        porous   : (0 0 0)

forces forces_mono write:
    sum of forces:
        pressure : (-7.82 9.46 0.196)
        viscous  : (-0.168 0.0143 0.0236)
        porous   : (0 0 0)
    sum of moments:
        pressure : (-0.706 -1.95 -5.12)
        viscous  : (0.00825 -0.0102 0.0357)
        porous   : (0 0 0)

forces forces_ns_front_wing write:
    sum of forces:
        pressure : (-17.7 0.846 -110)
        viscous  : (-0.337 0.00337 0.102)
        porous   : (0 0 0)
    sum of moments:
        pressure : (-36.5 72.3 8.82)
        viscous  : (0.0501 -0.00695 0.163)
        porous   : (0 0 0)

forces forces_dyfuzor write:
    sum of forces:
        pressure : (-3.39 -2 -94.8)
        viscous  : (-0.716 -0.0563 0.0524)
        porous   : (0 0 0)
    sum of moments:
        pressure : (-29.4 -84 3.65)
        viscous  : (0.00731 0.178 0.296)
        porous   : (0 0 0)

End

Finalising parallel run
